* Run conducted with constant temp at top/bottom and atmospheric pressure on top
ROCKS----1----*----2----*----3----*----4----*----5----*----6----*----7----*----8
ATMOS    2     2260.       .10   1.0e-15   1.0e-15   1.0e-15       1.8    1.0e55
    3.0e-9                 1.8       0.7
    3            0.3      0.05
    7         0.4570       0.0   3.22e-4     5.0e7      0.99
UPPER    2     2260.       .10   1.0e-15   1.0e-15   1.0e-15       1.8    1500.0
    3.0e-9                 1.8       0.7
    3            0.3      0.05
    7         0.4570       0.0   3.22e-4     5.0e7      0.99
CAPRO    2     2260.       .01   0.3e-17   0.3e-17   0.3e-17       1.8    1500.0
    3.0e-9                 1.8       0.7
    3            0.3      0.05
    7            0.3       0.0   3.22e-6     5.0e7      0.99
AQFER    2     2260.       .10   0.3e-13   0.3e-13   0.3e-13       1.8    1500.0
    3.0e-9                 1.8       0.7
    3            0.3      0.05
    7            0.3       0.0  1.006e-4     5.0e7      0.99
BASEM    2     2260.       .01   0.3e-17   0.3e-17   0.3e-17       1.8    1500.0
    3.0e-9                 1.8       0.7
    3            0.3      0.05
    7            0.3       0.0   3.22e-6     5.0e7      0.99
BOTOM    2     2260.       .01   0.3e-17   0.3e-17   0.3e-17       1.8    1.0e55
    3.0e-9                 1.8       0.7
    3            0.3      0.05
    7            0.3       0.0   3.22e-6     5.0e7      0.99

MULTI----1----*----2----*----3----*----4----*----5----*----6----*----7----*----8
    3    4    3    6
SELEC....2....3....4....5....6....7....8....9...10...11...12...13...14...15...16
    1                                            0    3    0    2    0    0    2
        .8        .8
SOLVR----1----*----2----*----3----*----4----*----5----*----6----*----7----*----8
5  Z1   O0    8.0e-1    1.0e-7
START----1----*----2----*----3----*----4----*----5----*----6----*----7----*----8
----*----1 MOP: 123456789*123456789*1234 ---*----5----*----6----*----7----*----8
PARAM----1----*----2----*----3----*----4----*----5----*----6----*----7----*----8
   2 300      50 000 01000000  4    8
        0.  1.000e15      1.e6     1.e15                9.81        4.
     1.e-5       1.0       0.1        1.        1.     1.e-8

MOMOP----1----*----2----*----3----*----4----*----5----*----6----*----7----*----8
                       1                                                        
ENDCY----1----*----2----*----3----*----4----*----5----*----6----*----7----*----8