meshmaker-dummy                                                                 
ROCKS----1----*----2----*----3----*----4----*----5----*----6----*----7----*----8
INJEC    22.7000e+039.9000e-011.0000e-051.0000e-051.0000e-052.0000e+009.2000e+02
0.0000e+001.4000e-052.0000e+00                                                            
    3      0.000e+00 1.000e+00                                                  
    8                                                                           
TANK     22.7000e+039.9000e-011.0000e-051.0000e-051.0000e-052.0000e+009.2000e+22
0.0000e+001.4000e-052.0000e+00                                                            
    5                                                                           
    8                                                                           

MULTI----1----*----2----*----3----*----4----*----5----*----6----*----7----*----8
    2    2    2    6                                                            
START----1----*----2----*----3----*----4----*----5----*----6----*----7----*----8
PARAM----1-MOP: 123456789*123456789*1234----*----5----*----6----*----7----*----8
     -19    999912115     02    9   8                                           
2.9628e+073.2209e+076.0000e+001.2000e+02          9.8000e+004.0000e+00          
1.0000e-06                                                                      
                                                                                
                                                                                
INDOM----1----*----2----*----3----*----4----*----5----*----6----*----7----*----8
INJEC                                                                           
 5.5000000000000e+05 1.0000000000000e+00 1.5000000000000e+01                    
TANK                                                                            
 5.5000000000000e+05 1.0000000000000e+00 1.5000000000000e+01                    

MOMOP----1----*----2----*----3----*----4----*----5----*----6----*----7----*----8
2                                                                               
TIMES----1----*----2----*----3----*----4----*----5----*----6----*----7----*----8
  400                                                                           
2.9628e+072.9635e+072.9641e+072.9648e+072.9654e+072.9661e+072.9667e+072.9674e+07
2.9680e+072.9687e+072.9693e+072.9699e+072.9706e+072.9712e+072.9719e+072.9725e+07
2.9732e+072.9738e+072.9745e+072.9751e+072.9758e+072.9764e+072.9771e+072.9777e+07
2.9784e+072.9790e+072.9796e+072.9803e+072.9809e+072.9816e+072.9822e+072.9829e+07
2.9835e+072.9842e+072.9848e+072.9855e+072.9861e+072.9868e+072.9874e+072.9881e+07
2.9887e+072.9893e+072.9900e+072.9906e+072.9913e+072.9919e+072.9926e+072.9932e+07
2.9939e+072.9945e+072.9952e+072.9958e+072.9965e+072.9971e+072.9978e+072.9984e+07
2.9990e+072.9997e+073.0003e+073.0010e+073.0016e+073.0023e+073.0029e+073.0036e+07
3.0042e+073.0049e+073.0055e+073.0062e+073.0068e+073.0075e+073.0081e+073.0087e+07
3.0094e+073.0100e+073.0107e+073.0113e+073.0120e+073.0126e+073.0133e+073.0139e+07
3.0146e+073.0152e+073.0159e+073.0165e+073.0172e+073.0178e+073.0184e+073.0191e+07
3.0197e+073.0204e+073.0210e+073.0217e+073.0223e+073.0230e+073.0236e+073.0243e+07
3.0249e+073.0256e+073.0262e+073.0269e+073.0275e+073.0281e+073.0288e+073.0294e+07
3.0301e+073.0307e+073.0314e+073.0320e+073.0327e+073.0333e+073.0340e+073.0346e+07
3.0353e+073.0359e+073.0366e+073.0372e+073.0378e+073.0385e+073.0391e+073.0398e+07
3.0404e+073.0411e+073.0417e+073.0424e+073.0430e+073.0437e+073.0443e+073.0450e+07
3.0456e+073.0463e+073.0469e+073.0475e+073.0482e+073.0488e+073.0495e+073.0501e+07
3.0508e+073.0514e+073.0521e+073.0527e+073.0534e+073.0540e+073.0547e+073.0553e+07
3.0560e+073.0566e+073.0572e+073.0579e+073.0585e+073.0592e+073.0598e+073.0605e+07
3.0611e+073.0618e+073.0624e+073.0631e+073.0637e+073.0644e+073.0650e+073.0657e+07
3.0663e+073.0669e+073.0676e+073.0682e+073.0689e+073.0695e+073.0702e+073.0708e+07
3.0715e+073.0721e+073.0728e+073.0734e+073.0741e+073.0747e+073.0754e+073.0760e+07
3.0766e+073.0773e+073.0779e+073.0786e+073.0792e+073.0799e+073.0805e+073.0812e+07
3.0818e+073.0825e+073.0831e+073.0838e+073.0844e+073.0851e+073.0857e+073.0863e+07
3.0870e+073.0876e+073.0883e+073.0889e+073.0896e+073.0902e+073.0909e+073.0915e+07
3.0922e+073.0928e+073.0935e+073.0941e+073.0948e+073.0954e+073.0960e+073.0967e+07
3.0973e+073.0980e+073.0986e+073.0993e+073.0999e+073.1006e+073.1012e+073.1019e+07
3.1025e+073.1032e+073.1038e+073.1045e+073.1051e+073.1057e+073.1064e+073.1070e+07
3.1077e+073.1083e+073.1090e+073.1096e+073.1103e+073.1109e+073.1116e+073.1122e+07
3.1129e+073.1135e+073.1142e+073.1148e+073.1154e+073.1161e+073.1167e+073.1174e+07
3.1180e+073.1187e+073.1193e+073.1200e+073.1206e+073.1213e+073.1219e+073.1226e+07
3.1232e+073.1239e+073.1245e+073.1251e+073.1258e+073.1264e+073.1271e+073.1277e+07
3.1284e+073.1290e+073.1297e+073.1303e+073.1310e+073.1316e+073.1323e+073.1329e+07
3.1336e+073.1342e+073.1348e+073.1355e+073.1361e+073.1368e+073.1374e+073.1381e+07
3.1387e+073.1394e+073.1400e+073.1407e+073.1413e+073.1420e+073.1426e+073.1433e+07
3.1439e+073.1446e+073.1452e+073.1458e+073.1465e+073.1471e+073.1478e+073.1484e+07
3.1491e+073.1497e+073.1504e+073.1510e+073.1517e+073.1523e+073.1530e+073.1536e+07
3.1543e+073.1549e+073.1555e+073.1562e+073.1568e+073.1575e+073.1581e+073.1588e+07
3.1594e+073.1601e+073.1607e+073.1614e+073.1620e+073.1627e+073.1633e+073.1640e+07
3.1646e+073.1652e+073.1659e+073.1665e+073.1672e+073.1678e+073.1685e+073.1691e+07
3.1698e+073.1704e+073.1711e+073.1717e+073.1724e+073.1730e+073.1737e+073.1743e+07
3.1749e+073.1756e+073.1762e+073.1769e+073.1775e+073.1782e+073.1788e+073.1795e+07
3.1801e+073.1808e+073.1814e+073.1821e+073.1827e+073.1834e+073.1840e+073.1846e+07
3.1853e+073.1859e+073.1866e+073.1872e+073.1879e+073.1885e+073.1892e+073.1898e+07
3.1905e+073.1911e+073.1918e+073.1924e+073.1931e+073.1937e+073.1943e+073.1950e+07
3.1956e+073.1963e+073.1969e+073.1976e+073.1982e+073.1989e+073.1995e+073.2002e+07
3.2008e+073.2015e+073.2021e+073.2028e+073.2034e+073.2040e+073.2047e+073.2053e+07
3.2060e+073.2066e+073.2073e+073.2079e+073.2086e+073.2092e+073.2099e+073.2105e+07
3.2112e+073.2118e+073.2125e+073.2131e+073.2137e+073.2144e+073.2150e+073.2157e+07
3.2163e+073.2170e+073.2176e+073.2183e+073.2189e+073.2196e+073.2202e+073.2209e+07
FOFT ----1----*----2----*----3----*----4----*----5----*----6----*----7----*----8
A11 0                                                                           
A11 1                                                                           

GENER----1----*----2----*----3----*----4----*----5----*----6----*----7----*----8
A11 0                      680     COM11                                        
 0.0000000e+00 9.0000000e+02 9.6000000e+02 5.8380000e+04                        
 1.4478000e+05 2.3118000e+05 3.1764000e+05 4.0416000e+05                        
 4.9062000e+05 5.1792000e+05 5.1822000e+05 5.1852000e+05                        
 5.1882000e+05 5.7702000e+05 6.6342000e+05 7.4982000e+05                        
 8.3598000e+05 9.2268000e+05 1.0087800e+06 1.0952400e+06                        
 1.1816400e+06 1.2680400e+06 1.3544400e+06 1.4409000e+06                        
 1.5276000e+06 1.6137000e+06 1.7001000e+06 1.7862600e+06                        
 1.7865600e+06 1.8729600e+06 1.9593600e+06 2.0458200e+06                        
 2.1325200e+06 2.2186200e+06 2.3050200e+06 2.3911800e+06                        
 2.4775800e+06 2.5639800e+06 2.6504400e+06 2.7372000e+06                        
 2.8233000e+06 2.9097000e+06 2.9961000e+06 3.0825600e+06                        
 3.1689600e+06 3.2556600e+06 3.3418200e+06 3.4282200e+06                        
 3.5146200e+06 3.6010200e+06 3.6871800e+06 3.7735800e+06                        
 3.8599800e+06 3.9461400e+06 4.4652410e+06 4.4655410e+06                        
 4.5516560e+06 4.6380720e+06 4.7244880e+06 4.8109030e+06                        
 4.8973200e+06 4.9837370e+06 5.0701530e+06 5.1565690e+06                        
 5.2039010e+06 5.2049570e+06 5.2049670e+06 5.2049770e+06                        
 5.2049870e+06 5.2049970e+06 5.2050070e+06 5.2050170e+06                        
 5.2050280e+06 5.2050370e+06 5.2050470e+06 5.2051610e+06                        
 5.2423930e+06 5.3287980e+06 5.4151900e+06 5.5020130e+06                        
 5.5884290e+06 5.6748460e+06 5.7612620e+06 5.8476790e+06                        
 5.9340960e+06 6.0205120e+06 6.1069280e+06 6.1933440e+06                        
 6.2797620e+06 6.3175690e+06 6.3197790e+06 6.3660890e+06                        
 6.4525050e+06 6.5389210e+06 6.6253390e+06 6.7117560e+06                        
 6.7978740e+06 6.8840470e+06 6.9485480e+06 6.9486080e+06                        
 6.9486680e+06 6.9487280e+06 6.9487880e+06 6.9704690e+06                        
 7.0567730e+06 7.0568920e+06 7.0583940e+06 7.0584530e+06                        
 7.0585140e+06 7.0585740e+06 7.0586340e+06 7.1432550e+06                        
 7.1646970e+06 7.1647570e+06 7.1648170e+06 7.1648770e+06                        
 7.1649370e+06 7.2295590e+06 7.3118980e+06 7.3119580e+06                        
 7.3159830e+06 7.4024060e+06 7.4412650e+06 7.4846880e+06                        
 7.4888310e+06 7.5752540e+06 7.6284660e+06 7.6616180e+06                        
 7.6616780e+06 7.7479800e+06 7.8344040e+06 7.8641940e+06                        
 7.9166860e+06 7.9208300e+06 8.0071930e+06 8.0616050e+06                        
 8.0617850e+06 8.0618450e+06 8.0619050e+06 8.0936160e+06                        
 8.1799810e+06 8.2664060e+06 8.3528300e+06 8.4391940e+06                        
 8.5257360e+06 8.6119800e+06 8.6984040e+06 8.7848280e+06                        
 8.8118560e+06 8.8119760e+06 8.8124640e+06 8.8125240e+06                        
 8.8125840e+06 8.8126440e+06 8.8712000e+06 8.9576210e+06                        
 9.0439860e+06 9.1304080e+06 9.2168330e+06 9.3031970e+06                        
 9.3896200e+06 9.4261360e+06 9.4263770e+06 9.4759830e+06                        
 9.5624080e+06 9.6488320e+06 9.6756770e+06 9.6757370e+06                        
 9.6757970e+06 9.6758570e+06 9.6759170e+06 9.7351350e+06                        
 9.7351950e+06 9.8216180e+06 9.9079810e+06 9.9279800e+06                        
 9.9280410e+06 9.9281000e+06 9.9281610e+06 9.9282200e+06                        
 9.9944050e+06 1.0080829e+07 1.0167193e+07 1.0180705e+07                        
 1.0180765e+07 1.0180945e+07 1.0181005e+07 1.0253615e+07                        
 1.0340037e+07 1.0426400e+07 1.0433727e+07 1.0433787e+07                        
 1.0433847e+07 1.0433906e+07 1.0433967e+07 1.0434027e+07                        
 1.0512822e+07 1.0599185e+07 1.0685608e+07 1.0772030e+07                        
 1.0858393e+07 1.0944821e+07 1.1031184e+07 1.1074185e+07                        
 1.1095626e+07 1.1117607e+07 1.1204032e+07 1.1290397e+07                        
 1.1376822e+07 1.1440526e+07 1.1454056e+07 1.1463185e+07                        
 1.1549607e+07 1.1592009e+07 1.1592069e+07 1.1592129e+07                        
 1.1592189e+07 1.1636032e+07 1.1722396e+07 1.1752244e+07                        
 1.1786657e+07 1.1808819e+07 1.1895183e+07 1.1942870e+07                        
 1.1942930e+07 1.1942990e+07 1.1943050e+07 1.2327167e+07                        
 1.2354497e+07 1.2354557e+07 1.2354617e+07 1.2369452e+07                        
 1.2411260e+07 1.2413602e+07 1.2500037e+07 1.2586410e+07                        
 1.2616201e+07 1.2616262e+07 1.2616322e+07 1.2616381e+07                        
 1.2616441e+07 1.2650258e+07 1.2675545e+07 1.2759212e+07                        
 1.2845582e+07 1.2882220e+07 1.2882280e+07 1.2882340e+07                        
 1.2882400e+07 1.2882460e+07 1.2932013e+07 1.3018389e+07                        
 1.3104824e+07 1.3191198e+07 1.3277633e+07 1.3364007e+07                        
 1.3450322e+07 1.3450441e+07 1.3536815e+07 1.3569669e+07                        
 1.3569672e+07 1.3569674e+07 1.3569676e+07 1.3569678e+07                        
 1.3569680e+07 1.3569682e+07 1.3569684e+07 1.3569686e+07                        
 1.3569688e+07 1.3569690e+07 1.3569692e+07 1.3569694e+07                        
 1.3569696e+07 1.3569698e+07 1.3569700e+07 1.3569703e+07                        
 1.3569705e+07 1.3569707e+07 1.3569709e+07 1.3569711e+07                        
 1.3569713e+07 1.3569715e+07 1.3569717e+07 1.3569719e+07                        
 1.3569721e+07 1.3569723e+07 1.3569726e+07 1.3569728e+07                        
 1.3569730e+07 1.3569732e+07 1.3569734e+07 1.3569736e+07                        
 1.3569738e+07 1.3569740e+07 1.3569742e+07 1.3569744e+07                        
 1.3569746e+07 1.3569748e+07 1.3569751e+07 1.3569753e+07                        
 1.3569755e+07 1.3569757e+07 1.3569759e+07 1.3569761e+07                        
 1.3569763e+07 1.3569765e+07 1.3569767e+07 1.3569769e+07                        
 1.3569771e+07 1.3569773e+07 1.3569775e+07 1.3569777e+07                        
 1.3569779e+07 1.3569781e+07 1.3569783e+07 1.3569785e+07                        
 1.4118540e+07 1.4141603e+07 1.4228025e+07 1.4314388e+07                        
 1.4400809e+07 1.4487234e+07 1.4573601e+07 1.4660024e+07                        
 1.4710892e+07 1.4710953e+07 1.4711013e+07 1.4711074e+07                        
 1.4711134e+07 1.4746388e+07 1.4832813e+07 1.4919236e+07                        
 1.4973167e+07 1.4973229e+07 1.4973288e+07 1.4973349e+07                        
 1.4973409e+07 1.5005540e+07 1.5005600e+07 1.5092025e+07                        
 1.5178388e+07 1.5239044e+07 1.5239104e+07 1.5239163e+07                        
 1.5239164e+07 1.5239223e+07 1.5239284e+07 1.5264809e+07                        
 1.5351229e+07 1.5437592e+07 1.5524015e+07 1.5610437e+07                        
 1.5696801e+07 1.5783225e+07 1.5869589e+07 1.5956015e+07                        
 1.6042380e+07 1.6128805e+07 1.6215229e+07 1.6301594e+07                        
 1.6388014e+07 1.6474434e+07 1.6560793e+07 1.6647213e+07                        
 1.6733632e+07 1.6819992e+07 1.6906412e+07 1.6955958e+07                        
 1.6956018e+07 1.6956078e+07 1.6956138e+07 1.6992831e+07                        
 1.7079192e+07 1.7165612e+07 1.7252032e+07 1.7338391e+07                        
 1.7387156e+07 1.7387336e+07 1.7387396e+07 1.7387457e+07                        
 1.7387517e+07 1.7424810e+07 1.7511231e+07 1.7597590e+07                        
 1.7643833e+07 1.7643893e+07 1.7643953e+07 1.7644012e+07                        
 1.7644073e+07 1.7683950e+07 1.7684010e+07 1.7770430e+07                        
 1.7856789e+07 1.7943208e+07 1.8029627e+07 1.8115987e+07                        
 1.8155443e+07 1.8180066e+07 1.8202407e+07 1.8237300e+07                        
 1.8288107e+07 1.8288826e+07 1.8375187e+07 1.8461607e+07                        
 1.8548027e+07 1.8634387e+07 1.8720807e+07 1.8807227e+07                        
 1.8893586e+07 1.8935025e+07 1.8935205e+07 1.8935325e+07                        
 1.8935385e+07 1.8980006e+07 1.9066426e+07 1.9961053e+07                        
 1.9961054e+07 2.0188667e+07 2.0188727e+07 2.0189628e+07                        
 2.0275992e+07 2.0362416e+07 2.0448780e+07 2.0535201e+07                        
 2.0621624e+07 2.0707989e+07 2.0724025e+07 2.0724084e+07                        
 2.0724145e+07 2.0724205e+07 2.0724385e+07 2.0794412e+07                        
 2.0880836e+07 2.0967199e+07 2.1053620e+07 2.1139983e+07                        
 2.1224605e+07 2.1225506e+07 2.1226407e+07 2.1311569e+07                        
 2.1311810e+07 2.1311870e+07 2.1311930e+07 2.1311990e+07                        
 2.1312050e+07 2.1312831e+07 2.1399194e+07 2.1485616e+07                        
 2.1571980e+07 2.1658402e+07 2.1744945e+07 2.1831189e+07                        
 2.1917614e+07 2.2004036e+07 2.2090400e+07 2.2176824e+07                        
 2.2263187e+07 2.2349606e+07 2.2436030e+07 2.2522393e+07                        
 2.2608759e+07 2.2608780e+07 2.2608878e+07 2.2695120e+07                        
 2.2695239e+07 2.2695240e+07 2.2781546e+07 2.2781605e+07                        
 2.2868030e+07 2.2954396e+07 2.3040822e+07 2.3071394e+07                        
 2.3071454e+07 2.3071574e+07 2.3071575e+07 2.3071634e+07                        
 2.3071696e+07 2.3127192e+07 2.3213622e+07 2.3299990e+07                        
 2.3386421e+07 2.3472790e+07 2.3559218e+07 2.3645587e+07                        
 2.3732015e+07 2.3757179e+07 2.3757241e+07 2.3757301e+07                        
 2.3757360e+07 2.3757361e+07 2.3757420e+07 2.3757479e+07                        
 2.3818381e+07 2.3904812e+07 2.3991180e+07 2.4077607e+07                        
 2.4164035e+07 2.4250401e+07 2.4336828e+07 2.4423195e+07                        
 2.4468360e+07 2.4468420e+07 2.4468481e+07 2.4468540e+07                        
 2.4468600e+07 2.4468661e+07 2.4509621e+07 2.4595985e+07                        
 2.4682414e+07 2.4768783e+07 2.4855210e+07 2.4941580e+07                        
 2.5028069e+07 2.5114437e+07 2.5200804e+07 2.5287231e+07                        
 2.5373539e+07 2.5373719e+07 2.5460087e+07 2.5464233e+07                        
 2.5516484e+07 2.5549998e+07 2.5550059e+07 2.5632813e+07                        
 2.5696400e+07 2.5719210e+07 2.5805615e+07 2.5978385e+07                        
 2.6017722e+07 2.6064820e+07 2.6130222e+07 2.6151182e+07                        
 2.6237604e+07 2.6324028e+07 2.6363426e+07 2.6363487e+07                        
 2.6363546e+07 2.6363607e+07 2.6363666e+07 2.6410393e+07                        
 2.6496816e+07 2.6583180e+07 2.6604682e+07 2.6669604e+07                        
 2.6734827e+07 2.6756026e+07 2.6842392e+07 2.6911459e+07                        
 2.6955541e+07 2.6992717e+07 2.6992776e+07 2.6992837e+07                        
 2.6992896e+07 2.6992957e+07 2.6993017e+07 2.7015238e+07                        
 2.7101600e+07 2.7188023e+07 2.7214869e+07 2.7214870e+07                        
 2.7274387e+07 2.7337872e+07 2.7360813e+07 2.7447236e+07                        
 2.7533600e+07 2.7562849e+07 2.7620025e+07 2.7641225e+07                        
 2.7641286e+07 2.7641345e+07 2.7641406e+07 2.7641466e+07                        
 2.7687050e+07 2.7706387e+07 2.7792812e+07 2.7879236e+07                        
 2.7922241e+07 2.7965599e+07 2.8034427e+07 2.8051963e+07                        
 2.8052023e+07 2.8138387e+07 2.8224810e+07 2.8294358e+07                        
 2.8294418e+07 2.8294478e+07 2.8294539e+07 2.8294598e+07                        
 2.8294659e+07 2.8311234e+07 2.8397600e+07 2.8484023e+07                        
 2.8510869e+07 2.8570387e+07 2.8637472e+07 2.8656809e+07                        
 2.8705878e+07 2.8743233e+07 2.8812059e+07 2.8829593e+07                        
 2.8916016e+07 2.8943044e+07 2.8943104e+07 2.8943164e+07                        
 2.8943224e+07 2.8943284e+07 2.9002439e+07 2.9088803e+07                        
 2.9175225e+07 2.9261591e+07 2.9317262e+07 2.9348013e+07                        
 2.9413956e+07 2.9434432e+07 2.9520793e+07 2.9590881e+07                        
 2.9590941e+07 2.9591001e+07 2.9591061e+07 2.9591121e+07                        
 2.9607216e+07 2.9660847e+07 2.9660967e+07 2.9693637e+07                        
 2.9717600e+07 2.9717660e+07 2.9717720e+07 2.9717780e+07                        
 2.9717841e+07 2.9717901e+07 2.9750451e+07 2.9779999e+07                        
 2.9843423e+07 2.9866424e+07 2.9948403e+07 3.0097708e+07                        
 3.0125636e+07 3.0211998e+07 3.0298420e+07 3.0357037e+07                        
 3.0357038e+07 3.0384783e+07 3.0452589e+07 3.0471207e+07                        
 3.0557631e+07 3.0643937e+07 3.0643998e+07 3.0655768e+07                        
 3.0655828e+07 3.0655888e+07 3.0655949e+07 3.0656009e+07                        
 3.0730420e+07 3.0941136e+07 3.0949770e+07 3.0989587e+07                        
 3.1059014e+07 3.1076010e+07 3.1162434e+07 3.1248796e+07                        
 3.1335218e+07 3.1421580e+07 3.1508005e+07 3.1520618e+07                        
 3.1520677e+07 3.1520738e+07 3.1520797e+07 3.1520858e+07                        
 3.1520917e+07 3.1594431e+07 3.1680795e+07 3.1767219e+07                        
 3.1853584e+07 3.1940003e+07 3.2026428e+07 3.2071173e+07                        
 3.2112792e+07 3.2176875e+07 3.2199219e+07 3.2231407e+07                        
 2.5488878e-04 2.5400000e-06 6.0218913e-07 4.8786111e-07                        
 4.5235069e-07 4.2275040e-07 3.9533634e-07 3.8544067e-07                        
 3.6099634e-07 0.0000000e+00 4.0910000e-06 4.3033333e-07                        
 3.5498969e-07 3.1509954e-07 2.2662963e-07 1.5370009e-07                        
 1.0196424e-07 9.8217189e-08 9.0980800e-08 7.9924769e-08                        
 8.2862269e-08 7.6325231e-08 6.9271339e-08 6.1391003e-08                        
 6.4066202e-08 6.2336806e-08 5.3727948e-08 5.1333333e-08                        
 4.5703704e-08 3.8160880e-08 4.7209114e-08 5.0471742e-08                        
 4.0307782e-08 5.1763889e-08 4.3803389e-08 3.7164352e-08                        
 4.3128472e-08 5.1431876e-08 4.7113877e-08 5.0485482e-08                        
 5.1055556e-08 4.9295139e-08 4.2557252e-08 4.2025463e-08                        
 5.7514418e-08 2.9261838e-08 4.9594907e-08 5.5307870e-08                        
 5.0034722e-08 4.1563370e-08 4.3951389e-08 4.2908565e-08                        
 3.8282266e-08 4.5438171e-08 5.3000000e-08 3.6311908e-08                        
 5.8085308e-08 4.7902009e-08 4.4581381e-08 9.9246676e-08                        
 4.4824514e-08 3.8910618e-08 4.8781476e-08 0.0000000e+00                        
 0.0000000e+00 0.0000000e+00 0.0000000e+00 0.0000000e+00                        
 0.0000000e+00 0.0000000e+00 0.0000000e+00 0.0000000e+00                        
 0.0000000e+00 0.0000000e+00 1.1042105e-05 0.0000000e+00                        
 2.6344540e-08 3.2880359e-08 3.6565196e-08 4.1663581e-08                        
 5.4132867e-08 4.0870904e-08 3.8267933e-08 4.0206209e-08                        
 4.7999213e-08 3.3042492e-08 5.0387660e-08 4.6108450e-08                        
 1.8023117e-08 0.0000000e+00-0.0000000e+00-0.0000000e+00                        
-0.0000000e+00-0.0000000e+00-0.0000000e+00-0.0000000e+00                        
 2.3697457e-06 3.7107518e-06 0.0000000e+00 0.0000000e+00                        
 0.0000000e+00 3.9633333e-06 3.9575942e-06 4.0468090e-06                        
 4.1991597e-06 4.1653129e-06 0.0000000e+00 0.0000000e+00                        
 0.0000000e+00 4.1716667e-06 4.1659848e-06 4.1659127e-06                        
 0.0000000e+00 0.0000000e+00 0.0000000e+00 4.1833333e-06                        
 4.1659698e-06 0.0000000e+00 2.9033333e-06 2.9161988e-06                        
 2.8008748e-06 2.2912916e-06 0.0000000e+00 1.8749216e-06                        
 1.7519283e-06 3.2341934e-06 0.0000000e+00 1.2483333e-06                        
 1.2497764e-06 1.2497952e-06 1.2497919e-06 4.3173055e-07                        
 4.1652992e-07 4.1658696e-07 2.1072355e-06 0.0000000e+00                        
 0.0000000e+00 3.7940000e-05 1.6837060e-07 1.3356221e-07                        
 1.0780330e-07 1.0253402e-07 1.0260178e-07 9.8111899e-08                        
 8.6683132e-08 9.5318430e-08 1.1194807e-07 7.8793843e-07                        
 1.0204917e-04 1.3805328e-06 1.6543667e-04 1.4125667e-04                        
 5.0783333e-06 2.1737824e-07 4.1088393e-08 3.9428009e-08                        
 1.1083983e-08 3.9780156e-09 8.3471933e-07 1.7499971e-06                        
 1.7500274e-06 0.0000000e+00 1.7500302e-06 1.7499960e-06                        
 1.7500023e-06 1.7499683e-06 0.0000000e+00 0.0000000e+00                        
 0.0000000e+00 1.7516667e-06 1.7500017e-06 1.7516667e-06                        
 1.7500029e-06 1.7499913e-06 1.7500425e-06 0.0000000e+00                        
 0.0000000e+00 0.0000000e+00 1.7627119e-06 1.7499962e-06                        
 1.7499942e-06 1.7500093e-06 1.7500000e-06 0.0000000e+00                        
 0.0000000e+00 1.7483333e-06 1.7500000e-06 1.7500069e-06                        
 1.7499948e-06 1.7500614e-06 0.0000000e+00 0.0000000e+00                        
 0.0000000e+00 0.0000000e+00 1.7500000e-06 1.6721416e-06                        
-0.0000000e+00-0.0000000e+00-0.0000000e+00-0.0000000e+00                        
-0.0000000e+00-0.0000000e+00 2.8544918e-07 3.7074297e-07                        
 4.5111687e-08 4.1737923e-08 3.9656111e-08 3.9547585e-08                        
 4.1834108e-08 4.6112343e-08 4.6412531e-08 3.7108607e-08                        
 3.2368756e-08 0.0000000e+00 0.0000000e+00-0.0000000e+00                        
 2.6102228e-08 8.5533324e-07 1.6697534e-06 1.6663586e-06                        
 1.6664065e-06 1.6663946e-06 1.6663661e-06 0.0000000e+00                        
 0.0000000e+00 0.0000000e+00-0.0000000e+00 0.0000000e+00                        
 0.0000000e+00 0.0000000e+00 1.9919447e-06 1.6663653e-06                        
 1.6666097e-06 1.6663840e-06 1.6663865e-06 1.6664194e-06                        
 0.0000000e+00 0.0000000e+00 0.0000000e+00 1.6633333e-06                        
 1.6664015e-06 1.6663266e-06 1.6663989e-06 1.6663749e-06                        
 1.6663901e-06 0.0000000e+00 0.0000000e+00 0.0000000e+00                        
 0.0000000e+00 1.6663855e-06 1.6663830e-06 1.5678845e-06                        
 5.7740755e-08 5.7939492e-08 6.7890800e-08 1.6057464e-08                        
-0.0000000e+00 1.2700581e-08 7.5439825e-08 0.0000000e+00                        
 0.0000000e+00 0.0000000e+00 0.0000000e+00 0.0000000e+00                        
 0.0000000e+00 0.0000000e+00 0.0000000e+00 0.0000000e+00                        
 0.0000000e+00 0.0000000e+00 0.0000000e+00 0.0000000e+00                        
 0.0000000e+00 0.0000000e+00 0.0000000e+00 0.0000000e+00                        
 0.0000000e+00 0.0000000e+00 0.0000000e+00 0.0000000e+00                        
 0.0000000e+00 0.0000000e+00 0.0000000e+00 0.0000000e+00                        
 0.0000000e+00 0.0000000e+00 0.0000000e+00 0.0000000e+00                        
 0.0000000e+00 0.0000000e+00 0.0000000e+00 0.0000000e+00                        
 0.0000000e+00 0.0000000e+00 0.0000000e+00 0.0000000e+00                        
 0.0000000e+00 0.0000000e+00 0.0000000e+00 0.0000000e+00                        
 0.0000000e+00 0.0000000e+00 0.0000000e+00 0.0000000e+00                        
 0.0000000e+00 0.0000000e+00 0.0000000e+00 0.0000000e+00                        
 0.0000000e+00 0.0000000e+00 0.0000000e+00 0.0000000e+00                        
 0.0000000e+00 0.0000000e+00 0.0000000e+00 1.4464378e-08                        
 4.0064172e-09 3.6535836e-08 4.0370297e-08 4.1020122e-08                        
 5.9541799e-07 1.6663992e-06 1.6663839e-06 1.6663993e-06                        
 0.0000000e+00 0.0000000e+00 0.0000000e+00 1.6750000e-06                        
 1.6663868e-06 1.6663859e-06 1.6663978e-06 1.5754186e-06                        
 0.0000000e+00 0.0000000e+00 0.0000000e+00 1.6600000e-06                        
 1.6664281e-06 1.6483333e-06 1.6663894e-06 1.6663953e-06                        
 1.6663760e-06 0.0000000e+00 0.0000000e+00-0.0000000e+00                        
 0.0000000e+00 1.6360656e-06 1.6664368e-06 4.9626244e-07                        
 5.0703426e-08 5.1090566e-08 5.3029321e-08 5.2812514e-08                        
 3.9906739e-08 5.1406836e-08 6.9622567e-08 4.6450530e-08                        
 6.2185710e-08 5.3562668e-08 5.3291264e-08 6.6565610e-08                        
 4.1753066e-08 2.8406999e-08 7.6668595e-08 4.5996829e-08                        
-0.0000000e+00 1.8557047e-08 4.5571792e-08 0.0000000e+00                        
 0.0000000e+00 0.0000000e+00 1.6406399e-08 2.8656454e-08                        
 8.1270655e-07 1.6663863e-06 1.6675552e-06 1.6663673e-06                        
 0.0000000e+00 0.0000000e+00 0.0000000e+00 1.6616667e-06                        
 1.6664146e-06 1.6663704e-06 1.6663938e-06 1.6663690e-06                        
 0.0000000e+00 0.0000000e+00 0.0000000e+00 1.6327869e-06                        
 1.6663741e-06 1.6783333e-06 1.6663793e-06 1.4182158e-06                        
 6.0354783e-08 6.0347840e-08 6.9694303e-08 4.6395985e-08                        
 5.3888641e-08 6.9746207e-08 6.9741782e-08 5.3718976e-08                        
 6.9541029e-08 6.8504302e-08 5.9529044e-08 6.1316825e-08                        
 6.3030338e-08 8.6861838e-08 7.4067346e-08 5.2392918e-08                        
 1.1986534e-07 0.0000000e+00 0.0000000e+00-0.0000000e+00                        
-0.0000000e+00-0.0000000e+00-0.0000000e+00-0.0000000e+00                        
 3.7137598e-08 7.5166667e-07 7.5016648e-07 7.5000463e-07                        
 7.5000000e-07 7.5000232e-07 7.5000521e-07 7.5000636e-07                        
 7.5000174e-07 7.4999376e-07 0.0000000e+00 0.0000000e+00                        
 0.0000000e+00 7.4777778e-07 7.5001214e-07 7.4999653e-07                        
 7.5000405e-07 7.5000984e-07 7.5000637e-07 7.4999173e-07                        
 7.5016648e-07 7.5005549e-07 7.5000470e-07 0.0000000e+00                        
 0.0000000e+00 0.0000000e+00 0.0000000e+00 7.4666667e-07                        
 7.5019206e-07 7.5000868e-07 7.5000116e-07 7.5000232e-07                        
 7.5000694e-07 6.0476873e-07-0.0000000e+00 3.0484235e-08                        
 7.7085696e-08 5.5468714e-08 6.9309451e-08 7.0563783e-08                        
 6.5649915e-08 6.3763538e-08 7.1582738e-08 6.7688674e-08                        
 1.9920000e-04 0.0000000e+00 4.8404490e-08 5.7142857e-08                        
-0.0000000e+00 6.4701180e-08 8.4745763e-08 7.6701186e-08                        