meshmaker-dummy                                                                 
ROCKS----1----*----2----*----3----*----4----*----5----*----6----*----7----*----8
INJEC    2    2700.0      0.99    1.0e-5    1.0e-5    1.0e-5       2.0     920.0
       0.0    1.4e-5       2.0                                                            
    3            0.0       1.0                                                  
    8                                                                           
TANK     2    2700.0      0.99    1.0e-5    1.0e-5    1.0e-5       2.0    9.2e22
       0.0    1.4e-5       2.0                                                            
    5                                                                           
    8                                                                           

MULTI----1----*----2----*----3----*----4----*----5----*----6----*----7----*----8
    2    2    2    6                                                            
START----1----*----2----*----3----*----4----*----5----*----6----*----7----*----8
PARAM----1-MOP: 123456789*123456789*1234----*----5----*----6----*----7----*----8
     -19    999912115     02    9   8                                           
 1.75392e7 3.89993e7       6.0     120.0                 9.8       4.0          
    1.0e-6                                                                      
                                                                                
                                                                                
INDOM----1----*----2----*----3----*----4----*----5----*----6----*----7----*----8
INJEC                                                                           
           2101000.0               10.68                19.0                    
TANK                                                                            
           2101000.0                 1.0                15.0                    

MOMOP----1----*----2----*----3----*----4----*----5----*----6----*----7----*----8
2                                                                               
TIMES----1----*----2----*----3----*----4----*----5----*----6----*----7----*----8
  400                                                                           
 1.75392e7 1.75932e7 1.76472e7 1.77013e7 1.77553e7 1.78094e7 1.78634e7 1.79175e7
 1.79715e7 1.80256e7 1.80796e7 1.81337e7 1.81877e7 1.82417e7 1.82958e7 1.83498e7
 1.84039e7 1.84579e7 1.85120e7 1.85660e7 1.86201e7 1.86741e7 1.87282e7 1.87822e7
 1.88363e7 1.88903e7 1.89443e7 1.89984e7 1.90524e7 1.91065e7 1.91605e7 1.92146e7
 1.92686e7 1.93227e7 1.93767e7 1.94308e7 1.94848e7 1.95389e7 1.95929e7 1.96469e7
 1.97010e7 1.97550e7 1.98091e7 1.98631e7 1.99172e7 1.99712e7 2.00253e7 2.00793e7
 2.01334e7 2.01874e7 2.02415e7 2.02955e7 2.03495e7 2.04036e7 2.04576e7 2.05117e7
 2.05657e7 2.06198e7 2.06738e7 2.07279e7 2.07819e7 2.08360e7 2.08900e7 2.09441e7
 2.09981e7 2.10521e7 2.11062e7 2.11602e7 2.12143e7 2.12683e7 2.13224e7 2.13764e7
 2.14305e7 2.14845e7 2.15386e7 2.15926e7 2.16467e7 2.17007e7 2.17547e7 2.18088e7
 2.18628e7 2.19169e7 2.19709e7 2.20250e7 2.20790e7 2.21331e7 2.21871e7 2.22412e7
 2.22952e7 2.23493e7 2.24033e7 2.24573e7 2.25114e7 2.25654e7 2.26195e7 2.26735e7
 2.27276e7 2.27816e7 2.28357e7 2.28897e7 2.29438e7 2.29978e7 2.30519e7 2.31059e7
 2.31599e7 2.32140e7 2.32680e7 2.33221e7 2.33761e7 2.34302e7 2.34842e7 2.35383e7
 2.35923e7 2.36464e7 2.37004e7 2.37545e7 2.38085e7 2.38625e7 2.39166e7 2.39706e7
 2.40247e7 2.40787e7 2.41328e7 2.41868e7 2.42409e7 2.42949e7 2.43490e7 2.44030e7
 2.44571e7 2.45111e7 2.45651e7 2.46192e7 2.46732e7 2.47273e7 2.47813e7 2.48354e7
 2.48894e7 2.49435e7 2.49975e7 2.50516e7 2.51056e7 2.51597e7 2.52137e7 2.52677e7
 2.53218e7 2.53758e7 2.54299e7 2.54839e7 2.55380e7 2.55920e7 2.56461e7 2.57001e7
 2.57542e7 2.58082e7 2.58623e7 2.59163e7 2.59703e7 2.60244e7 2.60784e7 2.61325e7
 2.61865e7 2.62406e7 2.62946e7 2.63487e7 2.64027e7 2.64568e7 2.65108e7 2.65649e7
 2.66189e7 2.66729e7 2.67270e7 2.67810e7 2.68351e7 2.68891e7 2.69432e7 2.69972e7
 2.70513e7 2.71053e7 2.71594e7 2.72134e7 2.72675e7 2.73215e7 2.73755e7 2.74296e7
 2.74836e7 2.75377e7 2.75917e7 2.76458e7 2.76998e7 2.77539e7 2.78079e7 2.78620e7
 2.79160e7 2.79701e7 2.80241e7 2.80781e7 2.81322e7 2.81862e7 2.82403e7 2.82943e7
 2.83484e7 2.84024e7 2.84565e7 2.85105e7 2.85646e7 2.86186e7 2.86727e7 2.87267e7
 2.87807e7 2.88348e7 2.88888e7 2.89429e7 2.89969e7 2.90510e7 2.91050e7 2.91591e7
 2.92131e7 2.92672e7 2.93212e7 2.93753e7 2.94293e7 2.94833e7 2.95374e7 2.95914e7
 2.96455e7 2.96995e7 2.97536e7 2.98076e7 2.98617e7 2.99157e7 2.99698e7 3.00238e7
 3.00779e7 3.01319e7 3.01859e7 3.02400e7 3.02940e7 3.03481e7 3.04021e7 3.04562e7
 3.05102e7 3.05643e7 3.06183e7 3.06724e7 3.07264e7 3.07805e7 3.08345e7 3.08885e7
 3.09426e7 3.09966e7 3.10507e7 3.11047e7 3.11588e7 3.12128e7 3.12669e7 3.13209e7
 3.13750e7 3.14290e7 3.14831e7 3.15371e7 3.15911e7 3.16452e7 3.16992e7 3.17533e7
 3.18073e7 3.18614e7 3.19154e7 3.19695e7 3.20235e7 3.20776e7 3.21316e7 3.21857e7
 3.22397e7 3.22937e7 3.23478e7 3.24018e7 3.24559e7 3.25099e7 3.25640e7 3.26180e7
 3.26721e7 3.27261e7 3.27802e7 3.28342e7 3.28883e7 3.29423e7 3.29963e7 3.30504e7
 3.31044e7 3.31585e7 3.32125e7 3.32666e7 3.33206e7 3.33747e7 3.34287e7 3.34828e7
 3.35368e7 3.35908e7 3.36449e7 3.36989e7 3.37530e7 3.38070e7 3.38611e7 3.39151e7
 3.39692e7 3.40232e7 3.40773e7 3.41313e7 3.41854e7 3.42394e7 3.42934e7 3.43475e7
 3.44015e7 3.44556e7 3.45096e7 3.45637e7 3.46177e7 3.46718e7 3.47258e7 3.47799e7
 3.48339e7 3.48880e7 3.49420e7 3.49960e7 3.50501e7 3.51041e7 3.51582e7 3.52122e7
 3.52663e7 3.53203e7 3.53744e7 3.54284e7 3.54825e7 3.55365e7 3.55906e7 3.56446e7
 3.56986e7 3.57527e7 3.58067e7 3.58608e7 3.59148e7 3.59689e7 3.60229e7 3.60770e7
 3.61310e7 3.61851e7 3.62391e7 3.62932e7 3.63472e7 3.64012e7 3.64553e7 3.65093e7
 3.65634e7 3.66174e7 3.66715e7 3.67255e7 3.67796e7 3.68336e7 3.68877e7 3.69417e7
 3.69958e7 3.70498e7 3.71038e7 3.71579e7 3.72119e7 3.72660e7 3.73200e7 3.73741e7
 3.74281e7 3.74822e7 3.75362e7 3.75903e7 3.76443e7 3.76984e7 3.77524e7 3.78064e7
 3.78605e7 3.79145e7 3.79686e7 3.80226e7 3.80767e7 3.81307e7 3.81848e7 3.82388e7
 3.82929e7 3.83469e7 3.84010e7 3.84550e7 3.85090e7 3.85631e7 3.86171e7 3.86712e7
 3.87252e7 3.87793e7 3.88333e7 3.88874e7 3.89414e7 3.89955e7 3.90495e7 3.91036e7
FOFT ----1----*----2----*----3----*----4----*----5----*----6----*----7----*----8
A11 0                                                                           
A11 1                                                                           

GENER----1----*----2----*----3----*----4----*----5----*----6----*----7----*----8
A11 0                     1026     COM11                                        
           0.0 6.443140000e5 1.288127000e6 1.931859999e6                        
 2.577686000e6 3.223962999e6 3.870271000e6 4.515238999e6                        
 5.162076999e6 5.808513999e6 6.462163000e6 7.110352999e6                        
 7.759218999e6 8.400244999e6 9.041430000e6 9.681945000e6                        
 1.032213099e7 1.096348599e7 1.160351200e7 1.224237900e7                        
 1.288273000e7 1.352277699e7 1.416244899e7 1.480317699e7                        
 1.528820099e7 1.560795999e7 1.592821200e7 1.624747100e7                        
 1.656702000e7 1.688342900e7 1.720360800e7 1.752367600e7                        
 1.771232100e7 1.772887300e7 1.774477400e7 1.776072400e7                        
 1.777669499e7 1.779251499e7 1.780849600e7 1.782442599e7                        
 1.784041700e7 1.785645699e7 1.787237700e7 1.788843799e7                        
 1.790441799e7 1.792049899e7 1.793647899e7 1.795257000e7                        
    17968500.0 1.798453100e7 1.800062100e7 1.801651099e7                        
 1.803256199e7 1.804856500e7 1.806466600e7 1.808058600e7                        
 1.809659700e7 1.811258700e7 1.812864800e7 1.814468799e7                        
 1.816066900e7 1.817669900e7 1.819273000e7 1.820868000e7                        
 1.822457000e7 1.824058099e7 1.825658100e7 1.827261199e7                        
 1.828862199e7 1.830463299e7 1.832069299e7 1.833679399e7                        
 1.835276400e7 1.836885400e7 1.838493500e7 1.840095500e7                        
 1.841703599e7 1.843303599e7 1.844904700e7 1.846500700e7                        
 1.848103800e7 1.849711799e7 1.851319799e7 1.852921900e7                        
 1.854517900e7 1.856118999e7 1.857716000e7 1.859308099e7                        
 1.860911100e7 1.862521100e7 1.864120200e7 1.865734200e7                        
 1.867335299e7 1.868939300e7 1.870535399e7 1.872136399e7                        
 1.873744499e7 1.875355500e7 1.876955600e7 1.878563599e7                        
 1.880166600e7 1.881759700e7 1.883356699e7 1.884953799e7                        
 1.886570800e7 1.888167900e7 1.889772899e7 1.891366000e7                        
 1.892963999e7 1.894568999e7 1.896167100e7 1.897767100e7                        
 1.899365199e7 1.900967199e7 1.902566300e7 1.904167300e7                        
 1.905769399e7    19073674.0 1.908969500e7 1.910582500e7                        
 1.912197499e7 1.913796600e7 1.915397600e7 1.916992699e7                        
 1.918606699e7 1.920200800e7 1.921806800e7 1.923411899e7                        
 1.925011900e7 1.926614900e7 1.928222999e7 1.929810000e7                        
 1.931414100e7 1.933018099e7 1.934613200e7 1.936213199e7                        
 1.937810300e7 1.939395300e7 1.941010400e7 1.942613399e7                        
 1.944206400e7 1.945825500e7 1.947421499e7 1.949024600e7                        
 1.950628599e7 1.952232700e7 1.953845700e7 1.955440700e7                        
 1.957041800e7 1.958633800e7 1.960239900e7 1.961848900e7                        
 1.963461000e7 1.965059000e7 1.966658099e7 1.968260099e7                        
 1.969851099e7 1.971445200e7 1.973042199e7 1.974641300e7                        
 1.976239300e7 1.977832400e7 1.979418399e7 1.981014500e7                        
 1.982618499e7 1.984215500e7 1.985799599e7 1.987396600e7                        
 1.989001699e7    19906027.0 1.992188799e7 1.993778800e7                        
 1.995378900e7 1.996989899e7 1.998580900e7 2.000170999e7                        
 2.001777999e7 2.003374099e7 2.004987099e7 2.006573199e7                        
 2.008170200e7 2.009774299e7 2.011376300e7 2.012968299e7                        
 2.014562399e7 2.016155400e7 2.017756499e7 2.019346500e7                        
 2.020941599e7 2.022544599e7 2.024137699e7 2.025742699e7                        
 2.027348699e7 2.028947799e7 2.030542800e7 2.032137900e7                        
 2.033734899e7 2.035341999e7 2.036947999e7 2.038537099e7                        
 2.040135100e7 2.041731099e7 2.043330200e7 2.044936200e7                        
 2.046538299e7 2.048138300e7 2.049732399e7 2.051326400e7                        
 2.052919399e7 2.054517500e7 2.056121499e7 2.057711599e7                        
 2.059309599e7 2.060903699e7 2.062504699e7 2.064112700e7                        
 2.065722800e7 2.067320799e7 2.068920899e7 2.070518899e7                        
 2.072124000e7 2.073735999e7 2.075343000e7 2.076943100e7                        
 2.078544099e7 2.080133199e7 2.081720200e7 2.083311299e7                        
 2.084911300e7 2.086522299e7 2.088110400e7 2.089702400e7                        
 2.091299499e7 2.092905499e7 2.094497600e7 2.096096600e7                        
 2.097687699e7 2.099290700e7 2.100889700e7 2.102488799e7                        
 2.104092800e7 2.105683899e7 2.107281899e7 2.108878999e7                        
 2.110472999e7 2.112076100e7 2.113679099e7 2.115279100e7                        
 2.116885199e7 2.118479200e7 2.120077299e7 2.121674300e7                        
 2.123268399e7 2.124876400e7    21264724.0 2.128079500e7                        
 2.129678499e7 2.131274600e7 2.132869600e7 2.134472700e7                        
 2.136081700e7 2.137675699e7 2.139274799e7 2.140871800e7                        
 2.142472900e7 2.144067900e7 2.145672999e7 2.147267999e7                        
 2.148868099e7 2.150476100e7 2.152067100e7 2.153667200e7                        
 2.155264199e7 2.156861299e7 2.158464300e7 2.160062400e7                        
 2.161668399e7 2.163267399e7 2.164870500e7 2.166475500e7                        
 2.168073599e7 2.169679599e7 2.171273700e7 2.172868700e7                        
 2.174458800e7 2.176059799e7 2.177658799e7 2.179261899e7                        
 2.180847900e7 2.182438000e7 2.184027999e7 2.185626100e7                        
 2.187218100e7 2.188824099e7 2.190422199e7 2.192008200e7                        
 2.193592299e7 2.195192300e7 2.196786399e7 2.198383400e7                        
 2.199980399e7 2.201585500e7 2.203180500e7 2.204773600e7                        
 2.206373600e7 2.207982699e7 2.209582700e7 2.211184700e7                        
 2.212780800e7 2.214381799e7 2.215979900e7 2.217570900e7                        
 2.219166999e7 2.220766000e7 2.222369000e7 2.223980100e7                        
 2.225582100e7 2.227176199e7 2.228769199e7 2.230357299e7                        
 2.231957299e7 2.233556300e7 2.235155399e7 2.236757399e7                        
 2.238359500e7 2.239954500e7 2.241554600e7 2.243144599e7                        
 2.244748600e7 2.246349699e7 2.247952699e7 2.249535799e7                        
 2.251126799e7 2.252737899e7 2.254337900e7 2.255942999e7                        
 2.257543000e7 2.259142000e7 2.260753100e7 2.262347099e7                        
 2.263940199e7 2.265539200e7 2.267132300e7 2.268726299e7                        
 2.270330399e7 2.271940400e7 2.273553400e7 2.275141499e7                        
 2.276733499e7 2.278329599e7 2.279923600e7 2.281522700e7                        
 2.283126699e7 2.284719799e7 2.286315799e7 2.287917799e7                        
 2.289517899e7 2.291124900e7 2.292719000e7 2.294313000e7                        
 2.295912099e7 2.297514099e7 2.299123099e7 2.300720199e7                        
 2.302324200e7 2.303938300e7 2.305541300e7 2.307146300e7                        
 2.308747399e7 2.310345400e7 2.311933499e7 2.313520499e7                        
 2.315124599e7 2.316713600e7 2.318324599e7 2.319922699e7                        
 2.321516699e7 2.323113799e7 2.324706800e7 2.326304899e7                        
 2.327904900e7 2.329500900e7 2.331109999e7 2.332701999e7                        
 2.334316099e7 2.335916100e7 2.337520200e7 2.339121200e7                        
 2.340723299e7 2.342320300e7 2.343925299e7 2.345521399e7                        
 2.347122400e7 2.348724499e7 2.350317500e7 2.351919500e7                        
 2.353510599e7 2.355110600e7 2.356713699e7 2.358319700e7                        
 2.359931800e7 2.361541799e7 2.363148899e7 2.364741899e7                        
 2.366346899e7 2.367956999e7 2.369551999e7 2.371146099e7                        
 2.372759099e7 2.374361200e7 2.375973200e7 2.377562300e7                        
 2.379166299e7 2.380768300e7 2.382369399e7 2.383961399e7                        
 2.385552500e7 2.387142499e7 2.388747600e7 2.390339600e7                        
 2.391934600e7 2.393530700e7 2.395123699e7 2.396721800e7                        
 2.398318799e7 2.399918899e7 2.401517899e7 2.403117000e7                        
 2.404715999e7 2.406317000e7 2.407907100e7 2.409508100e7                        
 2.411113200e7 2.412714200e7 2.414315300e7 2.415906300e7                        
 2.417507400e7 2.419104399e7 2.420710499e7 2.422300500e7                        
 2.423900499e7 2.425505600e7 2.427100599e7 2.428693700e7                        
 2.430294699e7 2.431903800e7 2.433510900e7 2.435137900e7                        
 2.436753000e7 2.438364100e7 2.439981200e7 2.441594200e7                        
 2.443205300e7 2.444814399e7 2.446431400e7 2.448050500e7                        
 2.449665599e7 2.451276600e7 2.452902700e7 2.454521799e7                        
 2.456147800e7 2.457760900e7 2.459379000e7 2.460996999e7                        
 2.462607100e7 2.464227200e7 2.465847200e7 2.467453299e7                        
 2.469060399e7 2.470679400e7 2.472276499e7 2.473894599e7                        
 2.475511599e7 2.477120700e7 2.478752800e7 2.480373799e7                        
 2.481978900e7 2.483590000e7 2.485200999e7 2.486799100e7                        
 2.488406199e7 2.490019199e7 2.491643299e7 2.493259400e7                        
 2.494889400e7 2.496494500e7 2.498128600e7 2.499735600e7                        
 2.501351699e7 2.502975799e7 2.504586800e7 2.506195899e7                        
 2.507802999e7 2.509409999e7 2.511013099e7 2.512622200e7                        
 2.514235299e7 2.515860300e7 2.517461399e7 2.519091500e7                        
 2.520714499e7 2.522323600e7 2.523939699e7 2.525553700e7                        
 2.527167800e7 2.528781900e7 2.530397999e7 2.532006999e7                        
 2.533622099e7 2.535230200e7 2.536846199e7 2.538466299e7                        
 2.540082400e7 2.541699499e7 2.543316500e7    25449326.0                        
 2.546551699e7 2.548182699e7 2.549800800e7 2.551423900e7                        
 2.553030000e7 2.554640999e7 2.556260099e7 2.557870199e7                        
 2.559489199e7 2.561099300e7 2.562703400e7 2.564332499e7                        
 2.565946499e7 2.568667900e7 2.570267899e7 2.571881999e7                        
 2.573486000e7 2.575089100e7 2.576687099e7 2.578282200e7                        
 2.579885199e7 2.581478299e7 2.583085299e7 2.584687399e7                        
 2.586270400e7 2.587883499e7 2.589497500e7 2.591095599e7                        
 2.592690600e7 2.594289700e7 2.595895700e7 2.597495800e7                        
 2.599094800e7 2.600698900e7 2.602308899e7 2.603904999e7                        
 2.605511999e7 2.607122099e7 2.608726100e7 2.610318199e7                        
 2.611914200e7 2.613522300e7 2.615121299e7 2.616713400e7                        
 2.618314399e7 2.619917499e7 2.621537499e7 2.623161599e7                        
 2.624777600e7 2.626396699e7 2.628015700e7 2.629636800e7                        
 2.631245800e7 2.632858899e7 2.634477899e7 2.636073999e7                        
 2.637689000e7 2.639296100e7 2.640905099e7 2.642523200e7                        
 2.644136200e7 2.645746299e7 2.647345399e7 2.648958399e7                        
 2.650570500e7 2.652213500e7 2.653837600e7 2.655445599e7                        
 2.657052699e7 2.658669699e7 2.660272799e7 2.661896799e7                        
 2.663502899e7 2.665103900e7 2.666711899e7 2.668318999e7                        
 2.669934999e7 2.671530100e7 2.673138099e7 2.674734199e7                        
 2.676330200e7 2.677933299e7 2.679531299e7 2.681131399e7                        
 2.682738400e7 2.684346500e7 2.685955500e7 2.687565600e7                        
 2.689166599e7 2.690761700e7 2.692377700e7 2.693985800e7                        
 2.695583800e7    26971849.0 2.698784899e7 2.700395999e7                        
 2.702010000e7 2.703615099e7 2.705216100e7 2.706818199e7                        
 2.708403200e7 2.710019299e7 2.711622299e7 2.713229399e7                        
 2.714831399e7 2.716430500e7 2.718035500e7 2.719634599e7                        
 2.721236599e7 2.722841700e7 2.724439700e7 2.726026800e7                        
 2.727633799e7 2.729237899e7 2.730836899e7 2.732430899e7                        
 2.734041000e7 2.735650000e7 2.737247100e7 2.738855100e7                        
 2.740456200e7 2.742057200e7 2.743668300e7 2.745255299e7                        
 2.746855399e7 2.748452400e7 2.750054499e7 2.751658500e7                        
 2.753241599e7 2.754839600e7 2.756426699e7 2.758030700e7                        
 2.759626699e7 2.761228800e7 2.762822799e7 2.764421900e7                        
 2.766022900e7 2.767624999e7 2.769237999e7 2.770832100e7                        
 2.772429099e7 2.774013100e7 2.775604199e7 2.777217199e7                        
 2.778824299e7 2.780412299e7 2.782004399e7 2.783597400e7                        
 2.785193499e7 2.786795499e7 2.788396500e7 2.789995600e7                        
 2.791598600e7 2.793203699e7 2.794793700e7 2.796393800e7                        
 2.797986799e7 2.799583800e7 2.801197900e7 2.802798899e7                        
 2.804404000e7 2.806007999e7 2.807602000e7 2.809207099e7                        
 2.810807100e7 2.812400200e7 2.813989199e7 2.815585300e7                        
 2.817183300e7 2.818781300e7 2.820390399e7 2.821980400e7                        
 2.823575499e7 2.825162500e7 2.826761600e7 2.828371600e7                        
 2.829973699e7 2.831572699e7 2.833168700e7 2.834763799e7                        
 2.836360800e7 2.837957900e7 2.839550899e7 2.841136999e7                        
 2.842730000e7 2.844322000e7 2.845928100e7    28475351.0                        
 2.849137200e7 2.850742199e7 2.852339299e7 2.853935300e7                        
 2.855526300e7 2.857125399e7 2.858719400e7 2.860308500e7                        
 2.861897499e7 2.863497599e7 2.865096599e7 2.866695700e7                        
 2.868291699e7 2.869887699e7    28714898.0 2.873086800e7                        
 2.874692899e7 2.876299900e7 2.877898999e7 2.879510999e7                        
 2.881106999e7 2.882707099e7 2.884296100e7 2.885886200e7                        
 2.887490199e7 2.889077300e7 2.890685299e7 2.892302299e7                        
 2.893903400e7 2.895505400e7 2.897101499e7 2.898695499e7                        
 2.900297600e7 2.901895599e7 2.903502600e7 2.905091700e7                        
 2.906688699e7 2.908291799e7 2.909889800e7 2.911483800e7                        
 2.913084900e7 2.914687899e7 2.916297000e7 2.917899000e7                        
 2.919506100e7 2.921112100e7 2.922700100e7 2.924290200e7                        
 2.925890199e7 2.927490299e7 2.929090299e7 2.930678399e7                        
 2.932275400e7 2.933881400e7 2.935482500e7 2.937063500e7                        
 2.938657599e7 2.940238599e7 2.941843700e7 2.943798699e7                        
 2.945394699e7 2.946991799e7 2.948589799e7 2.950190900e7                        
 2.951787899e7 2.953387999e7 2.954992000e7 2.956595099e7                        
 2.958204099e7 2.959804100e7 2.961390200e7 2.962985200e7                        
 2.964580299e7 2.966162300e7 2.967762400e7 2.969361400e7                        
 2.970952399e7 2.972561499e7 2.974150499e7 2.975752600e7                        
 2.977346600e7 2.978952699e7 2.980553700e7 2.982146699e7                        
 2.983744800e7 2.985340800e7 2.986940900e7 2.988537899e7                        
 2.990142000e7 2.991745000e7 2.993352999e7 2.994949099e7                        
 2.996541099e7 2.998140199e7 2.999741200e7 3.001340300e7                        
 3.002946300e7 3.004531300e7 3.006123399e7 3.007727400e7                        
 3.009326500e7 3.010934499e7 3.012532600e7 3.014132599e7                        
 3.015730700e7 3.017328699e7 3.018932700e7 3.020537799e7                        
 3.022134800e7 3.023776399e7 3.025434699e7 3.027018700e7                        
 3.028628800e7 3.030229799e7 3.031832800e7 3.033468900e7                        
 3.035097000e7 3.036714000e7 3.038333099e7 3.039950200e7                        
 3.041603600e7 3.043216699e7 3.044846800e7 3.046482799e7                        
 3.048108900e7 3.049732900e7 3.051368399e7 3.052987499e7                        
 3.054606600e7 3.056225600e7 3.057848700e7 3.059465800e7                        
 3.061082800e7 3.062690899e7 3.064297900e7 3.065917000e7                        
 3.067521100e7 3.069150100e7 3.070776200e7 3.072389299e7                        
 3.073998299e7 3.075617400e7 3.077232399e7 3.078846499e7                        
 3.080456599e7 3.082064600e7 3.083693700e7 3.085302799e7                        
 3.086917800e7 3.088532899e7 3.090149899e7 3.091759999e7                        
 3.093371099e7 3.094998099e7 3.096618200e7 3.098246300e7                        
 3.099865299e7 3.101485399e7 3.103117399e7 3.104736500e7                        
 3.106356599e7 3.107963600e7 3.109581700e7 3.111199699e7                        
 3.112831799e7 3.114454900e7 3.116079899e7 3.117692000e7                        
 3.119317999e7 3.120933099e7 3.122551200e7 3.124172200e7                        
 3.125786300e7 3.127404299e7 3.129011399e7 3.130626499e7                        
 3.132240500e7 3.133860599e7 3.135468600e7 3.137086699e7                        
 3.138709799e7 3.140323800e7 3.141933900e7 3.143561900e7                        
 3.145177999e7 3.146807100e7 3.148430099e7 3.150043199e7                        
 3.151650199e7 3.153268299e7    31549024.0 3.156533399e7                        
 3.158154499e7 3.159767499e7 3.161389599e7 3.162999599e7                        
 3.164614700e7 3.166240800e7 3.167860800e7 3.169483899e7                        
 3.171094900e7 3.172723999e7 3.174353000e7 3.175974100e7                        
 3.177594199e7 3.179222199e7 3.180835299e7 3.182461300e7                        
 3.184075400e7 3.185690500e7 3.187307499e7 3.188922599e7                        
 3.190550600e7 3.192177699e7 3.193790800e7 3.195415799e7                        
 3.197028900e7 3.198651900e7 3.200268999e7 3.201890099e7                        
 3.203498100e7 3.205120199e7 3.206735200e7 3.208349300e7                        
 3.209965399e7 3.211580400e7 3.213187500e7 3.215343200e7                        
 3.216962299e7 3.218581399e7 3.220191400e7 3.221807499e7                        
 3.223429500e7 3.225292900e7 3.226894900e7 3.228514000e7                        
 3.230123000e7 3.231737100e7 3.233356099e7 3.234964200e7                        
 3.236570299e7 3.238190299e7 3.239813400e7 3.241433400e7                        
 3.243046500e7 3.244647499e7 3.246266600e7 3.247875699e7                        
 3.249486700e7 3.251094800e7 3.252694799e7 3.254302899e7                        
 3.255920900e7 3.257535999e7 3.259156999e7 3.260769100e7                        
 3.262380200e7 3.263994199e7 3.265606300e7 3.267214299e7                        
 3.268825399e7 3.270435399e7 3.272048499e7 3.273659500e7                        
 3.275272599e7 3.276895700e7 3.278516700e7 3.280139799e7                        
 3.281760800e7 3.283375900e7 3.284986899e7 3.286595000e7                        
 3.288208000e7 3.289822100e7 3.291435199e7 3.293054200e7                        
 3.294675300e7 3.296289299e7 3.297905400e7 3.299512399e7                        
 3.301132500e7 3.302743499e7 3.304371599e7 3.305982599e7                        
 3.307603699e7 3.309214799e7 3.310826799e7 3.312445900e7                        
 3.314073900e7 3.315695999e7 3.317322000e7 3.318922100e7                        
 3.320538100e7 3.322164200e7 3.323779199e7 3.325405300e7                        
 3.327012299e7 3.328632400e7 3.330245499e7 3.331859500e7                        
 3.333473600e7 3.335093600e7 3.336705699e7 3.338311699e7                        
 3.343170899e7 3.344804899e7 3.348017099e7 3.352865200e7                        
 3.360932499e7 3.362550500e7 3.364151600e7    33828179.0                        
 3.415077000e7 3.512097200e7 3.544447199e7 3.641485399e7                        
 3.706101600e7 3.770719700e7 3.802987799e7 3.835300900e7                        
 3.867617099e7 3.899937199e7                                                    
           0.0           0.0           0.0           0.0                        
           0.0           0.0           0.0           0.0                        
           0.0           0.0           0.0           0.0                        
           0.0           0.0           0.0           0.0                        
           0.0           0.0           0.0           0.0                        
           0.0           0.0           0.0           0.0                        
           0.0           0.0           0.0           0.0                        
           0.0           0.0           0.0           0.0                        
           0.0           0.0           0.0           0.0                        
           0.0           0.0           0.0           0.0                        
 2.79432211e-8 2.79114825e-8 2.79556152e-8 2.79246583e-8                        
 2.79304757e-8 2.79395370e-8 2.79404853e-8 2.79241117e-8                        
 2.79140055e-8 2.79570857e-8 2.79397274e-8 2.79281174e-8                        
 2.79361016e-8 2.79242164e-8 4.58119566e-8 6.98618974e-8                        
 6.98533828e-8 6.98613208e-8 6.98484446e-8 6.98523375e-8                        
 6.98467795e-8 6.98163372e-8 6.98756768e-8 6.97985505e-8                        
 6.98733159e-8 6.98613624e-8 6.98495351e-8 6.98478143e-8                        
 6.98657260e-8 6.98354757e-8 6.98527938e-8 6.98314328e-8                        
 6.98548887e-8 6.98712329e-8 6.98330154e-8 6.98479866e-8                        
 6.98290117e-8 6.98894607e-8 6.98433925e-8 6.97907457e-8                        
 6.98916162e-8 6.98491825e-8 6.98710793e-8 6.98296869e-8                        
 6.98287543e-8 6.98673314e-8 6.98349199e-8 6.98415231e-8                        
 6.98939680e-8 6.98099640e-8 6.98629914e-8 6.98741795e-8                        
 6.98473509e-8 6.98503932e-8 6.98083701e-8 6.98696846e-8                        
 6.98627932e-8 6.98181484e-8 6.98730845e-8 6.97956919e-8                        
 6.98959762e-8 6.98656928e-8 6.98309514e-8 6.98365943e-8                        
 6.98826578e-8 6.98505149e-8 6.98387137e-8 6.98236366e-8                        
 6.98611600e-8 6.98326965e-8 6.98866896e-8 6.98136963e-8                        
 6.98507453e-8 6.98917558e-8 6.98310329e-8 6.98458071e-8                        
 6.98237216e-8 6.98790389e-8 6.98337056e-8 6.98720324e-8                        