InjectionCO2                                                                    
ROCKS----1----*----2----*----3----*----4----*----5----*----6----*----7----*----8
TANK     1    2700.0      0.99    1.0e-5    1.0e-5    1.0e-5       2.0    9.2e22
       0.0    1.4e-5       2.0                                                            
capil    1    2700.0      0.99    1.0e-5    1.0e-5    1.0e-5       2.0     920.0
       0.0    1.4e-5       2.0                                                            

MULTI----1----*----2----*----3----*----4----*----5----*----6----*----7----*----8
    3    3    3    8                                                            
START----1----*----2----*----3----*----4----*----5----*----6----*----7----*----8
PARAM----1-MOP: 123456789*123456789*1234----*----5----*----6----*----7----*----8
     -19    999912115     02    9   8                                           
       0.0 8640000.0       6.0     120.0                 9.8       4.0          
    1.0e-6                                                                      
                                                                                
                                                                                
INDOM----1----*----2----*----3----*----4----*----5----*----6----*----7----*----8
TANK                                                                            
           3500000.0                 0.0                 0.0                15.0

TIMES----1----*----2----*----3----*----4----*----5----*----6----*----7----*----8
  100                                                                           
       0.0 8.72727e4 1.74545e5 2.61818e5 3.49090e5 4.36363e5 5.23636e5 6.10909e5
 6.98181e5 7.85454e5 8.72727e5 9.60000e5 1.04727e6 1.13454e6 1.22181e6 1.30909e6
 1.39636e6 1.48363e6 1.57090e6 1.65818e6 1.74545e6 1.83272e6 1.92000e6 2.00727e6
 2.09454e6 2.18181e6 2.26909e6 2.35636e6 2.44363e6 2.53090e6 2.61818e6 2.70545e6
 2.79272e6 2880000.0 2.96727e6 3.05454e6 3.14181e6 3.22909e6 3.31636e6 3.40363e6
 3.49090e6 3.57818e6 3.66545e6 3.75272e6 3.84000e6 3.92727e6 4.01454e6 4.10181e6
 4.18909e6 4.27636e6 4.36363e6 4.45090e6 4.53818e6 4.62545e6 4.71272e6 4800000.0
 4.88727e6 4.97454e6 5.06181e6 5.14909e6 5.23636e6 5.32363e6 5.41090e6 5.49818e6
 5.58545e6 5.67272e6 5760000.0 5.84727e6 5.93454e6 6.02181e6 6.10909e6 6.19636e6
 6.28363e6 6.37090e6 6.45818e6 6.54545e6 6.63272e6 6.72000e6 6.80727e6 6.89454e6
 6.98181e6 7.06909e6 7.15636e6 7.24363e6 7.33090e6 7.41818e6 7.50545e6 7.59272e6
 7.68000e6 7.76727e6 7.85454e6 7.94181e6 8.02909e6 8.11636e6 8.20363e6 8.29090e6
 8.37818e6 8.46545e6 8.55272e6 8640000.0                                        
FOFT ----1----*----2----*----3----*----4----*----5----*----6----*----7----*----8
A11 0                                                                           
A11 1                                                                           

GENER----1----*----2----*----3----*----4----*----5----*----6----*----7----*----8
A11 0                        2     COM31                                        
           0.0     8640000.0                                                    
        1.0e-6        1.0e-6                                                    
           0.0           0.0                                                    

DIFFU----1----*----2----*----3----*----4----*----5----*----6----*----7----*----8
       0.0       0.0                                                            
     0.035     0.035                                                            
      0.01      0.01                                                            
ENDCY----1----*----2----*----3----*----4----*----5----*----6----*----7----*----8
