injection model                                                                 
ROCKS----1----*----2----*----3----*----4----*----5----*----6----*----7----*----8
CLAY     12.5000e+031.2000e-013.0000e-183.0000e-183.0000e-182.0000e+009.2000e+02
5.0000e-091.4000e-052.0000e+00                                                            
EDZ      12.5000e+031.4000e-011.0000e-131.0000e-131.0000e-132.0000e+009.2000e+02
5.0000e-091.4000e-052.0000e+00                                                            
FAULT    12.5000e+031.4000e-015.0000e-175.0000e-171.0000e-172.0000e+009.2000e+02
5.0000e-091.4000e-052.0000e+00                                                            
BNDTO    12.5000e+031.2000e-013.0000e-183.0000e-183.0000e-182.0000e+009.2000e+02
5.0000e-091.4000e-052.0000e+00                                                            
BNDBO    12.5000e+031.2000e-013.0000e-183.0000e-183.0000e-182.0000e+009.2000e+02
5.0000e-091.4000e-052.0000e+00                                                            
                                                        
FLAC ----1----*----2----*----3----*----4----*----5----*----6----*----7----*----8
    0    0    9
         0       0.0
    3            0.0
         0       0.0
    3            0.0
         0       0.0
    3            0.0
         0       0.0
    3            0.0
         0       0.0
    3            0.0

RESDT----1----*----2----*----3----*----4----*----5----*----6----*----7----*----8
    2    1
   94878.0   95200.0  109278.0
       1.0      60.0      60.0
RPCAP----1----*----2----*----3----*----4----*----5----*----6----*----7----*----8
   11      5.000e-01 0.000e+00 0.000e+00                                        
   11      1.670e+00 1.800e+07 0.000e+00 0.000e+00 0.000e+00 0.000e+00 1.000e-02
MULTI----1----*----2----*----3----*----4----*----5----*----6----*----7----*----8
    3    3    3    6                                                            
START----1----*----2----*----3----*----4----*----5----*----6----*----7----*----8
PARAM----1-MOP: 123456789*123456789*1234----*----5----*----6----*----7----*----8
 9  9999    999912115     22    9   8                                           
9.4878e+041.1628e+055.0000e-012.0000e+00          9.8000e+008.0000e+00          
1.0000e-08                                                                      
 4.5000000000000e+05 1.7203000000000e-02 0.0000000000000e+00 1.6500000000000e+01
INDOM----1----*----2----*----3----*----4----*----5----*----6----*----7----*----8
BNDTO                                                                           
 8.9944750000000e+05 1.7203000000000e-02 0.0000000000000e+00 1.6500000000000e+01
BNDBO                                                                           
 1.2936100798110e+06 1.7203000000000e-02 0.0000000000000e+00 1.6500000000000e+01

FOFT ----1----*----2----*----3----*----4----*----5----*----6----*----7----*----8
AC247                                                                           
ADT90                                                                           
A16 3                                                                           

GENER----1----*----2----*----3----*----4----*----5----*----6----*----7----*----8
AC247                      231     COM11                                        
 0.0000000e+00 6.0000000e+03 1.2000000e+04 1.8000000e+04                        
 2.3553602e+04 2.3554602e+04 2.3555602e+04 2.3556602e+04                        
 2.3639602e+04 2.3640602e+04 2.3641602e+04 2.3642602e+04                        
 2.4000000e+04 2.7246691e+04 2.7247691e+04 2.7248691e+04                        
 2.7249691e+04 2.7250691e+04 2.7251691e+04 2.7252691e+04                        
 2.7260691e+04 2.7261691e+04 2.7262691e+04 2.7263691e+04                        
 2.7264691e+04 2.7265691e+04 2.7266691e+04 2.7267691e+04                        
 2.7268691e+04 2.7269691e+04 2.7270691e+04 2.7271691e+04                        
 2.7272691e+04 2.7273691e+04 2.7274691e+04 2.7275691e+04                        
 2.7276691e+04 2.7277691e+04 2.7278691e+04 2.7279691e+04                        
 2.7280691e+04 2.7281691e+04 2.7282691e+04 2.7283691e+04                        
 2.7284691e+04 2.7285691e+04 2.7286691e+04 2.7287691e+04                        
 2.7288691e+04 2.7289691e+04 2.7290691e+04 2.7291691e+04                        
 2.7292691e+04 2.7293691e+04 2.7294691e+04 2.7295691e+04                        
 2.7296691e+04 2.7297691e+04 2.9350747e+04 2.9351747e+04                        
 2.9352747e+04 2.9353747e+04 2.9356747e+04 2.9357747e+04                        
 2.9358747e+04 2.9359747e+04 2.9360747e+04 2.9361747e+04                        
 2.9450758e+04 2.9451758e+04 2.9452758e+04 2.9453758e+04                        
 2.9454758e+04 2.9455758e+04 2.9456758e+04 2.9457758e+04                        
 2.9476758e+04 2.9477758e+04 2.9478758e+04 2.9479758e+04                        
 3.0000000e+04 3.1150784e+04 3.1151784e+04 3.1152784e+04                        
 3.1153784e+04 3.1154784e+04 3.1155784e+04 3.1156784e+04                        
 3.1157784e+04 3.1158784e+04 3.1159784e+04 3.1160784e+04                        
 3.1161784e+04 3.1162784e+04 3.1163784e+04 3.1164784e+04                        
 3.1165784e+04 3.1166784e+04 3.1167784e+04 3.1171784e+04                        
 3.1172784e+04 3.1173784e+04 3.1174784e+04 3.1944815e+04                        
 3.1945815e+04 3.1946815e+04 3.1947815e+04 3.1948815e+04                        
 3.1949815e+04 3.1950815e+04 3.1951815e+04 3.1952815e+04                        
 3.1953815e+04 3.1954815e+04 3.1955815e+04 3.1956815e+04                        
 3.1961815e+04 3.1962815e+04 3.1963815e+04 3.1964815e+04                        
 3.6000000e+04 4.2000000e+04 4.8000000e+04 5.4000000e+04                        
 6.0000000e+04 6.6000000e+04 7.2000000e+04 7.8000000e+04                        
 8.4000000e+04 9.0000000e+04 9.4878561e+04 9.4879561e+04                        
 9.4880561e+04 9.4881561e+04 9.4912561e+04 9.4913561e+04                        
 9.4914561e+04 9.4915561e+04 9.4916561e+04 9.4920561e+04                        
 9.4921561e+04 9.4922561e+04 9.4923561e+04 9.4924561e+04                        
 9.4926561e+04 9.4927561e+04 9.4928561e+04 9.4929561e+04                        
 9.4930561e+04 9.4931561e+04 9.4932561e+04 9.4945561e+04                        
 9.4946561e+04 9.4947561e+04 9.4948561e+04 9.4951561e+04                        
 9.4952561e+04 9.4953561e+04 9.4954561e+04 9.4992561e+04                        
 9.4993561e+04 9.4994561e+04 9.4995561e+04 9.5020568e+04                        
 9.5021568e+04 9.5022568e+04 9.5023568e+04 9.6000000e+04                        
 9.9828923e+04 9.9829923e+04 9.9830923e+04 9.9831923e+04                        
 1.0200000e+05 1.0800000e+05 1.0996523e+05 1.0996623e+05                        
 1.0996723e+05 1.0996823e+05 1.0996923e+05 1.1400000e+05                        
 1.2000000e+05 1.2600000e+05 1.3200000e+05 1.3800000e+05                        
 1.4400000e+05 1.5000000e+05 1.5600000e+05 1.6200000e+05                        
 1.6800000e+05 1.7400000e+05 1.8000000e+05 1.8597267e+05                        
 1.8597367e+05 1.8597467e+05 1.8597567e+05 1.8598167e+05                        
 1.8598267e+05 1.8598367e+05 1.8598467e+05 1.8598567e+05                        
 1.8600000e+05 1.8600267e+05 1.8600367e+05 1.8600467e+05                        
 1.8600567e+05 1.8651772e+05 1.8651872e+05 1.8651972e+05                        
 1.8652072e+05 1.8652172e+05 1.8652272e+05 1.8653072e+05                        
 1.8653172e+05 1.8653272e+05 1.8653372e+05 1.9200000e+05                        
 1.9800000e+05 2.0211516e+05 2.0211616e+05 2.0211716e+05                        
 2.0211816e+05 2.0400000e+05 2.0502337e+05 2.0502437e+05                        
 2.0502537e+05 2.0502637e+05 2.1000000e+05 2.1600000e+05                        
 2.2200000e+05 2.2800000e+05 2.3400000e+05                                      
 0.0000000e+00 0.0000000e+00 0.0000000e+00 0.0000000e+00                        
 0.0000000e+00 0.0000000e+00 4.5613333e-03 1.7253733e-02                        
 1.7856133e-02 1.8328967e-02 1.8321250e-02 0.0000000e+00                        
 0.0000000e+00 0.0000000e+00 0.0000000e+00 0.0000000e+00                        
 6.6135183e-02 5.1286550e-02 4.4678983e-02 3.6765667e-02                        
 4.0499967e-02 4.0498833e-02 4.0498533e-02 3.7047967e-02                        
 3.3075617e-02 3.1496067e-02 2.3137117e-02 2.6626783e-02                        
 4.2660667e-03 2.6588950e-02 1.7434117e-02 2.6183767e-02                        
 7.4904667e-03 2.7446233e-02 5.7131167e-03 2.1053800e-02                        
 2.8713400e-02 0.0000000e+00 8.0465167e-03 3.2769567e-02                        
 0.0000000e+00 1.0939883e-02 2.3176233e-02 8.7554167e-03                        
 0.0000000e+00 2.3763233e-02 5.5313333e-03 0.0000000e+00                        
 0.0000000e+00 3.1092600e-02 1.0401717e-02 1.8477833e-02                        
 8.4179167e-03 8.9066833e-03 1.1038333e-02 1.7276717e-02                        
 4.1527333e-03 0.0000000e+00 0.0000000e+00 0.0000000e+00                        
 0.0000000e+00 1.7432567e-02 1.7433383e-02 1.6771033e-02                        
 1.6931567e-02 0.0000000e+00 0.0000000e+00 1.6950817e-02                        
 1.6432950e-02 1.6444417e-02 1.6456600e-02 5.4125600e-02                        
 1.2519897e-01 8.1729033e-02 3.5638400e-02 2.3930267e-02                        
 4.8244667e-03 4.8247833e-03 5.3096833e-03 0.0000000e+00                        
 0.0000000e+00 4.6179833e-03 4.8090000e-03 7.5979000e-03                        
 1.6369217e-02 2.2781367e-02 4.2327300e-02 5.3979750e-02                        
 8.4724583e-02 7.2974583e-02 3.5451567e-02 2.4517900e-02                        
 2.1602350e-02 2.0494550e-02 1.8937250e-02 1.6898267e-02                        
 1.5535833e-02 1.3409117e-02 9.7285667e-03 6.1475500e-03                        
 6.1028333e-03 4.5505833e-03 0.0000000e+00 0.0000000e+00                        
 4.5417500e-03 1.0728383e-02 2.2212717e-02 2.5891800e-02                        
 2.4983867e-02 7.5612500e-03 7.5604500e-03 2.2871333e-02                        
 3.3816300e-02 2.8871400e-02 1.3467533e-02 8.9788833e-03                        
 4.5469667e-03 4.5454667e-03 4.5460333e-03 0.0000000e+00                        
 0.0000000e+00 0.0000000e+00 0.0000000e+00 0.0000000e+00                        
 0.0000000e+00 0.0000000e+00 0.0000000e+00 0.0000000e+00                        
 0.0000000e+00 0.0000000e+00 0.0000000e+00 0.0000000e+00                        
 0.0000000e+00 1.8301900e-02 1.8433667e-02 1.8321667e-02                        
 1.8495900e-02 3.6792283e-02 2.0407867e-02 1.8467067e-02                        
 1.6868283e-02 1.6397433e-02 3.1036750e-02 2.5177150e-02                        
 3.5185083e-02 3.5252317e-02 3.7410283e-02 4.8377033e-02                        
 5.8810700e-02 7.0621833e-02 8.0712417e-02 9.9045267e-02                        
 9.9072167e-02 9.9105800e-02 9.2817250e-02 9.3551517e-02                        
 9.3354200e-02 9.3917700e-02 8.9714233e-02 9.1926883e-02                        
 9.4289900e-02 9.4287900e-02 9.1168050e-02 9.2832800e-02                        
 9.2821117e-02 9.2048183e-02 8.9712367e-02 8.8245500e-02                        
 8.8255683e-02 8.8239017e-02 8.8250017e-02 8.2517983e-02                        
 8.8281183e-02 8.8254450e-02 8.8246833e-02 8.8251333e-02                        
 8.8261317e-02 4.9855667e-03 0.0000000e+00 0.0000000e+00                        
 0.0000000e+00 0.0000000e+00 0.0000000e+00 0.0000000e+00                        
 0.0000000e+00 0.0000000e+00 0.0000000e+00 0.0000000e+00                        
 0.0000000e+00 0.0000000e+00 0.0000000e+00 4.1503833e-03                        
 4.2431500e-03 5.9459500e-03 8.6868267e-02 8.5003250e-02                        
 8.5012217e-02 8.4986933e-02 7.9543000e-02 9.0952733e-02                        
 9.8361633e-02 9.8360717e-02 9.8049333e-02 9.9815750e-02                        
 9.7085883e-02 1.1277850e-01 1.1308445e-01 1.1198738e-01                        
 1.0966655e-01 1.0257097e-01 9.8683717e-02 9.8408367e-02                        
 9.8851400e-02 9.8509867e-02 9.5743950e-02 8.7395750e-02                        
 8.6995367e-02 8.7840150e-02 8.8264733e-02 8.7842900e-02                        
 8.5227200e-02 8.8261550e-02 8.7838500e-02 8.7445717e-02                        
 8.7895650e-02 0.0000000e+00 0.0000000e+00 0.0000000e+00                        
 0.0000000e+00 0.0000000e+00 0.0000000e+00                                      
 0.0000000e+00 0.0000000e+00 0.0000000e+00 0.0000000e+00                        
 0.0000000e+00 0.0000000e+00 0.0000000e+00 0.0000000e+00                        
 0.0000000e+00 0.0000000e+00 0.0000000e+00 0.0000000e+00                        
 0.0000000e+00 0.0000000e+00 0.0000000e+00 0.0000000e+00                        
 0.0000000e+00 0.0000000e+00 0.0000000e+00 0.0000000e+00                        
 0.0000000e+00 0.0000000e+00 0.0000000e+00 0.0000000e+00                        
 0.0000000e+00 0.0000000e+00 0.0000000e+00 0.0000000e+00                        
 0.0000000e+00 0.0000000e+00 0.0000000e+00 0.0000000e+00                        
 0.0000000e+00 0.0000000e+00 0.0000000e+00 0.0000000e+00                        
 0.0000000e+00 0.0000000e+00 0.0000000e+00 0.0000000e+00                        
 0.0000000e+00 0.0000000e+00 0.0000000e+00 0.0000000e+00                        
 0.0000000e+00 0.0000000e+00 0.0000000e+00 0.0000000e+00                        
 0.0000000e+00 0.0000000e+00 0.0000000e+00 0.0000000e+00                        
 0.0000000e+00 0.0000000e+00 0.0000000e+00 0.0000000e+00                        
 0.0000000e+00 0.0000000e+00 0.0000000e+00 0.0000000e+00                        
 0.0000000e+00 0.0000000e+00 0.0000000e+00 0.0000000e+00                        
 0.0000000e+00 0.0000000e+00 0.0000000e+00 0.0000000e+00                        
 0.0000000e+00 0.0000000e+00 0.0000000e+00 0.0000000e+00                        
 0.0000000e+00 0.0000000e+00 0.0000000e+00 0.0000000e+00                        
 0.0000000e+00 0.0000000e+00 0.0000000e+00 0.0000000e+00                        
 0.0000000e+00 0.0000000e+00 0.0000000e+00 0.0000000e+00                        
 0.0000000e+00 0.0000000e+00 0.0000000e+00 0.0000000e+00                        
 0.0000000e+00 0.0000000e+00 0.0000000e+00 0.0000000e+00                        
 0.0000000e+00 0.0000000e+00 0.0000000e+00 0.0000000e+00                        
 0.0000000e+00 0.0000000e+00 0.0000000e+00 0.0000000e+00                        
 0.0000000e+00 0.0000000e+00 0.0000000e+00 0.0000000e+00                        
 0.0000000e+00 0.0000000e+00 0.0000000e+00 0.0000000e+00                        
 0.0000000e+00 0.0000000e+00 0.0000000e+00 0.0000000e+00                        
 0.0000000e+00 0.0000000e+00 0.0000000e+00 0.0000000e+00                        
 0.0000000e+00 0.0000000e+00 0.0000000e+00 0.0000000e+00                        
 0.0000000e+00 0.0000000e+00 0.0000000e+00 0.0000000e+00                        
 0.0000000e+00 0.0000000e+00 0.0000000e+00 0.0000000e+00                        
 0.0000000e+00 0.0000000e+00 0.0000000e+00 0.0000000e+00                        
 0.0000000e+00 0.0000000e+00 0.0000000e+00 0.0000000e+00                        
 0.0000000e+00 0.0000000e+00 0.0000000e+00 0.0000000e+00                        
 0.0000000e+00 0.0000000e+00 0.0000000e+00 0.0000000e+00                        
 0.0000000e+00 0.0000000e+00 0.0000000e+00 0.0000000e+00                        
 0.0000000e+00 0.0000000e+00 0.0000000e+00 0.0000000e+00                        
 0.0000000e+00 0.0000000e+00 0.0000000e+00 0.0000000e+00                        
 0.0000000e+00 0.0000000e+00 0.0000000e+00 0.0000000e+00                        
 0.0000000e+00 0.0000000e+00 0.0000000e+00 0.0000000e+00                        
 0.0000000e+00 0.0000000e+00 0.0000000e+00 0.0000000e+00                        
 0.0000000e+00 0.0000000e+00 0.0000000e+00 0.0000000e+00                        
 0.0000000e+00 0.0000000e+00 0.0000000e+00 0.0000000e+00                        
 0.0000000e+00 0.0000000e+00 0.0000000e+00 0.0000000e+00                        
 0.0000000e+00 0.0000000e+00 0.0000000e+00 0.0000000e+00                        
 0.0000000e+00 0.0000000e+00 0.0000000e+00 0.0000000e+00                        
 0.0000000e+00 0.0000000e+00 0.0000000e+00 0.0000000e+00                        
 0.0000000e+00 0.0000000e+00 0.0000000e+00 0.0000000e+00                        
 0.0000000e+00 0.0000000e+00 0.0000000e+00 0.0000000e+00                        
 0.0000000e+00 0.0000000e+00 0.0000000e+00 0.0000000e+00                        
 0.0000000e+00 0.0000000e+00 0.0000000e+00 0.0000000e+00                        
 0.0000000e+00 0.0000000e+00 0.0000000e+00 0.0000000e+00                        
 0.0000000e+00 0.0000000e+00 0.0000000e+00 0.0000000e+00                        
 0.0000000e+00 0.0000000e+00 0.0000000e+00 0.0000000e+00                        
 0.0000000e+00 0.0000000e+00 0.0000000e+00 0.0000000e+00                        
 0.0000000e+00 0.0000000e+00 0.0000000e+00 0.0000000e+00                        
 0.0000000e+00 0.0000000e+00 0.0000000e+00                                      

OUTPU----1----*----2----*----3----*----4----*----5----*----6----*----7----*----8
2                                                                               
ABSOLUTE                0                                                       
COORDINATE                                                                      
ENDCY----1----*----2----*----3----*----4----*----5----*----6----*----7----*----8
