* Permeability anisotropy in reservoir rock: kh = 100*kv
ROCKS----1----*----2----*----3----*----4----*----5----*----6----*----7----*----8
UPPAQ    2     2260.       .10   0.1e-13   0.1e-13   0.1e-13       1.8    1500.0
  8.33e-10                 1.8       0.7
    3            0.3      0.05
    7         0.4570       0.0   5.03e-5     5.0e7      0.99
CENAQ    2     2260.       .10   0.1e-12   0.1e-12   0.1e-12       1.8    1500.0
  8.33e-10                 1.8       0.7
    3            0.3      0.05
    7         0.4570       0.0   5.03e-5     5.0e7      0.99
BASAQ    2     2260.       .01   0.1e-15   0.1e-15   0.1e-15       1.8    1500.0
   8.33e-9                 1.8       0.7
    3            0.3      0.05
    7         0.4570       0.0  0.161e-5     5.0e7      0.99
CAPRO    2     2260.       .01   0.1e-18   0.1e-18   0.1e-18       1.8    1500.0
   8.33e-9                 1.8       0.7
    3            0.3      0.05
    7         0.4570       0.0  0.161e-5     5.0e7      0.99
BOUND    2     2260.       .10   0.1e-12   0.1e-12   0.1e-12       1.8    1.0e55
  8.33e-10                 1.8       0.7
    3            0.3      0.05
    7         0.4570       0.0   5.03e-5     5.0e7      0.99

MULTI----1----*----2----*----3----*----4----*----5----*----6----*----7----*----8
    3    3    3    6
SELEC....2....3....4....5....6....7....8....9...10...11...12...13...14...15...16
    1                                            0    0    0    2    0    0    2
        .8        .8
START----1----*----2----*----3----*----4----*----5----*----6----*----7----*----8
----*----1 MOP: 123456789*123456789*1234 ---*----5----*----6----*----7----*----8
PARAM----1----*----2----*----3----*----4----*----5----*----6----*----7----*----8
 0 29999    9000 000 02000000  4    8
        0.  3.1558e7    8.64e5      1.e8                9.81        4.
     1.e-4       1.0       0.1        1.        1.     1.e-8

MOMOP----1----*----2----*----3----*----4----*----5----*----6----*----7----*----8
                  1    1
GENER--Injection of CO2 x kg/s----*----4----*----5----*----6----*----7----*----8
A1900                              COM3       0.02  0.1651e6

OUTPU----1----*----2----*----3----*----4----*----5----*----6----*----7----*----8
3
PRESSURE
TEMPERATURE
SATURATION              1
ENDCY----1----*----2----*----3----*----4----*----5----*----6----*----7----*----8