meshmaker-dummy                                                                 
ROCKS----1----*----2----*----3----*----4----*----5----*----6----*----7----*----8
INJEC    2    2700.0      0.99    1.0e-5    1.0e-5    1.0e-5       2.0     920.0
       0.0    1.4e-5       2.0                                                            
    3            0.0       1.0                                                  
    8                                                                           
TANK     2    2700.0      0.99    1.0e-5    1.0e-5    1.0e-5       2.0    9.2e22
       0.0    1.4e-5       2.0                                                            
    5                                                                           
    8                                                                           

MULTI----1----*----2----*----3----*----4----*----5----*----6----*----7----*----8
    2    2    2    6                                                            
START----1----*----2----*----3----*----4----*----5----*----6----*----7----*----8
PARAM----1-MOP: 123456789*123456789*1234----*----5----*----6----*----7----*----8
     -19    999912115     02    9   8                                           
       0.0 3.91036e7       6.0     120.0                 9.8       4.0          
    1.0e-6                                                                      
                                                                                
                                                                                
INDOM----1----*----2----*----3----*----4----*----5----*----6----*----7----*----8
INJEC                                                                           
           2000000.0                 1.0                15.0                    
TANK                                                                            
           2000000.0                 1.0                15.0                    

MOMOP----1----*----2----*----3----*----4----*----5----*----6----*----7----*----8
2                                                                               
TIMES----1----*----2----*----3----*----4----*----5----*----6----*----7----*----8
  400                                                                           
       0.0 9.80040e4 1.96008e5 2.94012e5 3.92016e5 4.90020e5 5.88024e5 6.86028e5
 7.84032e5 8.82036e5 9.80040e5 1.07804e6 1.17604e6 1.27405e6 1.37205e6 1.47006e6
 1.56806e6 1.66606e6 1.76407e6 1.86207e6 1.96008e6 2.05808e6 2.15608e6 2.25409e6
 2.35209e6 2.45010e6 2.54810e6 2.64610e6 2.74411e6 2.84211e6 2.94012e6 3.03812e6
 3.13612e6 3.23413e6 3.33213e6 3.43014e6 3.52814e6 3.62614e6 3.72415e6 3.82215e6
 3.92016e6 4.01816e6 4.11616e6 4.21417e6 4.31217e6 4.41018e6 4.50818e6 4.60618e6
 4.70419e6 4.80219e6 4.90020e6 4.99820e6 5.09620e6 5.19421e6 5.29221e6 5.39022e6
 5.48822e6 5.58622e6 5.68423e6 5.78223e6 5.88024e6 5.97824e6 6.07624e6 6.17425e6
 6.27225e6 6.37026e6 6.46826e6 6.56626e6 6.66427e6 6.76227e6 6.86028e6 6.95828e6
 7.05628e6 7.15429e6 7.25229e6 7.35030e6 7.44830e6 7.54630e6 7.64431e6 7.74231e6
 7.84032e6 7.93832e6 8.03632e6 8.13433e6 8.23233e6 8.33034e6 8.42834e6 8.52634e6
 8.62435e6 8.72235e6 8.82036e6 8.91836e6 9.01637e6 9.11437e6 9.21237e6 9.31038e6
 9.40838e6 9.50639e6 9.60439e6 9.70239e6 9.80040e6 9.89840e6 9.99641e6 1.00944e7
 1.01924e7 1.02904e7 1.03884e7 1.04864e7 1.05844e7 1.06824e7 1.07804e7 1.08784e7
 1.09764e7 1.10744e7 1.11724e7 1.12704e7 1.13684e7 1.14664e7 1.15644e7 1.16624e7
 1.17604e7 1.18584e7 1.19564e7 1.20544e7 1.21524e7 1.22505e7 1.23485e7 1.24465e7
 1.25445e7 1.26425e7 1.27405e7 1.28385e7 1.29365e7 1.30345e7 1.31325e7 1.32305e7
 1.33285e7 1.34265e7 1.35245e7 1.36225e7 1.37205e7 1.38185e7 1.39165e7 1.40145e7
 1.41125e7 1.42105e7 1.43085e7 1.44065e7 1.45045e7 1.46025e7 1.47006e7 1.47986e7
 1.48966e7 1.49946e7 1.50926e7 1.51906e7 1.52886e7 1.53866e7 1.54846e7 1.55826e7
 1.56806e7 1.57786e7 1.58766e7 1.59746e7 1.60726e7 1.61706e7 1.62686e7 1.63666e7
 1.64646e7 1.65626e7 1.66606e7 1.67586e7 1.68566e7 1.69546e7 1.70526e7 1.71507e7
 1.72487e7 1.73467e7 1.74447e7 1.75427e7 1.76407e7 1.77387e7 1.78367e7 1.79347e7
 1.80327e7 1.81307e7 1.82287e7 1.83267e7 1.84247e7 1.85227e7 1.86207e7 1.87187e7
 1.88167e7 1.89147e7 1.90127e7 1.91107e7 1.92087e7 1.93067e7 1.94047e7 1.95028e7
 1.96008e7 1.96988e7 1.97968e7 1.98948e7 1.99928e7 2.00908e7 2.01888e7 2.02868e7
 2.03848e7 2.04828e7 2.05808e7 2.06788e7 2.07768e7 2.08748e7 2.09728e7 2.10708e7
 2.11688e7 2.12668e7 2.13648e7 2.14628e7 2.15608e7 2.16588e7 2.17568e7 2.18548e7
 2.19529e7 2.20509e7 2.21489e7 2.22469e7 2.23449e7 2.24429e7 2.25409e7 2.26389e7
 2.27369e7 2.28349e7 2.29329e7 2.30309e7 2.31289e7 2.32269e7 2.33249e7 2.34229e7
 2.35209e7 2.36189e7 2.37169e7 2.38149e7 2.39129e7 2.40109e7 2.41089e7 2.42069e7
 2.43049e7 2.44030e7 2.45010e7 2.45990e7 2.46970e7 2.47950e7 2.48930e7 2.49910e7
 2.50890e7 2.51870e7 2.52850e7 2.53830e7 2.54810e7 2.55790e7 2.56770e7 2.57750e7
 2.58730e7 2.59710e7 2.60690e7 2.61670e7 2.62650e7 2.63630e7 2.64610e7 2.65590e7
 2.66570e7 2.67550e7 2.68531e7 2.69511e7 2.70491e7 2.71471e7 2.72451e7 2.73431e7
 2.74411e7 2.75391e7 2.76371e7 2.77351e7 2.78331e7 2.79311e7 2.80291e7 2.81271e7
 2.82251e7 2.83231e7 2.84211e7 2.85191e7 2.86171e7 2.87151e7 2.88131e7 2.89111e7
 2.90091e7 2.91071e7 2.92051e7 2.93032e7 2.94012e7 2.94992e7 2.95972e7 2.96952e7
 2.97932e7 2.98912e7 2.99892e7 3.00872e7 3.01852e7 3.02832e7 3.03812e7 3.04792e7
 3.05772e7 3.06752e7 3.07732e7 3.08712e7 3.09692e7 3.10672e7 3.11652e7 3.12632e7
 3.13612e7 3.14592e7 3.15572e7 3.16552e7 3.17533e7 3.18513e7 3.19493e7 3.20473e7
 3.21453e7 3.22433e7 3.23413e7 3.24393e7 3.25373e7 3.26353e7 3.27333e7 3.28313e7
 3.29293e7 3.30273e7 3.31253e7 3.32233e7 3.33213e7 3.34193e7 3.35173e7 3.36153e7
 3.37133e7 3.38113e7 3.39093e7 3.40073e7 3.41053e7 3.42034e7 3.43014e7 3.43994e7
 3.44974e7 3.45954e7 3.46934e7 3.47914e7 3.48894e7 3.49874e7 3.50854e7 3.51834e7
 3.52814e7 3.53794e7 3.54774e7 3.55754e7 3.56734e7 3.57714e7 3.58694e7 3.59674e7
 3.60654e7 3.61634e7 3.62614e7 3.63594e7 3.64574e7 3.65555e7 3.66535e7 3.67515e7
 3.68495e7 3.69475e7 3.70455e7 3.71435e7 3.72415e7 3.73395e7 3.74375e7 3.75355e7
 3.76335e7 3.77315e7 3.78295e7 3.79275e7 3.80255e7 3.81235e7 3.82215e7 3.83195e7
 3.84175e7 3.85155e7 3.86135e7 3.87115e7 3.88095e7 3.89075e7 3.90056e7 3.91036e7
FOFT ----1----*----2----*----3----*----4----*----5----*----6----*----7----*----8
A11 0                                                                           
A11 1                                                                           

GENER----1----*----2----*----3----*----4----*----5----*----6----*----7----*----8
A11 0                       76     COM11                                        
           0.0    18068486.4    18324576.0    18581011.2                        
    18837446.4    19093968.0    19350316.8    19606579.2                        
    19862150.4    20117894.4    20373552.0    20629209.6                        
    20885212.8    21140956.8    21396873.6    21652876.8                        
    21908275.2    22163846.4    22419676.8    22675420.8                        
    22931337.6    23187427.2    23443344.0    23699692.8                        
    23955350.4 2.421126720e7    24468566.4    24726902.4                        
    24985411.2    25243574.4    25502256.0    25771046.4                        
    26027222.4    26715916.8    26972438.4    27229046.4                        
    27485136.0    27740793.6 2.799645120e7    28252281.6                        
    28508025.6    28763683.2    29019600.0    29275516.8                        
    29534544.0    29790201.6    30045945.6    30302985.6                        
    30562963.2    30821299.2 3.108024000e7 3.133961279e7                        
 3.159864000e7 3.185784000e7 3.211678079e7    32382892.8                        
    32640969.6 3.289921920e7    33157900.8    33674486.4                        
    33931785.6    34190294.4    34707657.6    35225366.4                        
 3.548387519e7    35742988.8    36260438.4    37035792.0                        
    37294560.0    37552982.4    37811059.2    38069136.0                        
    38327817.6    38586326.4    38844835.2    39103603.2                        
           0.0           0.0 6.98453978e-8 6.98297269e-8                        
 6.98689571e-8 6.98454243e-8 6.98532624e-8 4.20046015e-9                        
 1.37769826e-9 1.33743118e-9 1.33788316e-9 5.62697920e-9                        
 8.37012974e-9 8.37861298e-9 8.37295558e-9 8.40942613e-9                        
 8.38995075e-9 8.38427804e-9 8.37578333e-9 8.37861298e-9                        
 8.37295558e-9 8.40658894e-9 8.37295558e-9 8.35884544e-9                        
 8.38144455e-9 8.41226523e-9 8.36706837e-9 8.37242970e-9                        
 8.40574866e-9 8.37803373e-9 8.36124409e-9 8.42105968e-9                        
 8.36448379e-9 3.12597285e-9 8.35321470e-9 8.38960593e-9                        
 8.40658894e-9 8.38144455e-9 8.38144455e-9 8.37578333e-9                        
 8.37861298e-9 8.38144455e-9 8.37295558e-9 8.37295558e-9                        
 8.27241309e-9 8.38144455e-9 8.37861298e-9 8.41464363e-9                        
 8.35825855e-9 8.41137123e-9 8.35287447e-9 8.37774816e-9                        
 8.38892595e-9 8.38333333e-9 8.39172505e-9 8.39240620e-9                        
 8.38083857e-9 8.37523078e-9 6.2223211e-10           0.0                        
           0.0 3.8915503e-11 7.7883067e-11           0.0                        
 3.8915503e-11           0.0 7.7701157e-11 3.8928513e-11                        
           0.0 3.8928513e-11           0.0           0.0                        
           0.0           0.0           0.0           0.0                        
           0.0           0.0           0.0           0.0                        
           0.0           0.0           0.0           0.0                        
           0.0           0.0           0.0           0.0                        
           0.0           0.0           0.0           0.0                        
           0.0           0.0           0.0           0.0                        
           0.0           0.0           0.0           0.0                        
           0.0           0.0           0.0           0.0                        
           0.0           0.0           0.0           0.0                        
           0.0           0.0           0.0           0.0                        
           0.0           0.0           0.0           0.0                        
           0.0           0.0           0.0           0.0                        
           0.0           0.0           0.0           0.0                        
           0.0           0.0           0.0           0.0                        
           0.0           0.0           0.0           0.0                        
           0.0           0.0           0.0           0.0                        
           0.0           0.0           0.0           0.0                        
           0.0           0.0           0.0           0.0                        
           0.0           0.0           0.0           0.0                        
           0.0           0.0           0.0           0.0                        

OUTPU----1----*----2----*----3----*----4----*----5----*----6----*----7----*----8
8                                                                               
SATURATION              0                                                       
COORDINATE                                                                      
PRESSURE                0                                                       
CAPILLARY               1                                                       
DENSITY                 0                                                       
VISCOSITY               0                                                       
FLOW RATE               1    2                                                  
FLOW RATE               2    1                                                  
ENDCY----1----*----2----*----3----*----4----*----5----*----6----*----7----*----8
