* Run conducted with constant temp at top/bottom and atmospheric pressure on top
ROCKS----1----*----2----*----3----*----4----*----5----*----6----*----7----*----8
ATMOS    2     2260.       .10   1.0e-15   1.0e-15   1.0e-15       1.8    1.0e55
    3.0e-9                 1.8       0.7
    3            0.3      0.05
    7         0.4570       0.0   3.22e-4     5.0e7      0.99
UPPER    2     2260.       .10   1.0e-15   1.0e-15   1.0e-15       1.8    1500.0
    3.0e-9                 1.8       0.7
    3            0.3      0.05
    7         0.4570       0.0   3.22e-4     5.0e7      0.99
CAPRO    2     2260.       .01   0.3e-17   0.3e-17   0.3e-17       1.8    1500.0
    3.0e-9                 1.8       0.7
    3            0.3      0.05
    7            0.3       0.0   3.22e-6     5.0e7      0.99
AQFER    2     2260.       .10   0.3e-13   0.3e-13   0.3e-13       1.8    1500.0
    3.0e-9                 1.8       0.7
    3            0.3      0.05
    7            0.3       0.0  1.006e-4     5.0e7      0.99
BASEM    2     2260.       .01   0.3e-17   0.3e-17   0.3e-17       1.8    1500.0
    3.0e-9                 1.8       0.7
    3            0.3      0.05
    7            0.3       0.0   3.22e-6     5.0e7      0.99
BOTOM    2     2260.       .01   0.3e-17   0.3e-17   0.3e-17       1.8    1.0e55
    3.0e-9                 1.8       0.7
    3            0.3      0.05
    7            0.3       0.0   3.22e-6     5.0e7      0.99

MULTI----1----*----2----*----3----*----4----*----5----*----6----*----7----*----8
    3    3    3    6
SELEC....2....3....4....5....6....7....8....9...10...11...12...13...14...15...16
    1                                            0    0    0    2    0    0    2
        .8        .8
SOLVR----1----*----2----*----3----*----4----*----5----*----6----*----7----*----8
5  Z1   O0    8.0e-1    1.0e-7
START----1----*----2----*----3----*----4----*----5----*----6----*----7----*----8
----*----1 MOP: 123456789*123456789*1234 ---*----5----*----6----*----7----*----8
PARAM----1----*----2----*----3----*----4----*----5----*----6----*----7----*----8
   2 999    2000 000 00000200  4    8
        0.  3.1537e8      1.e8     1.e08                9.81        4.
     1.e-5       1.0       0.1        1.        1.     1.e-8

MOMOP----1----*----2----*----3----*----4----*----5----*----6----*----7----*----8
                       1                                                        
GENER--Injection of CO2 x kg/s----*----4----*----5----*----6----*----7----*----8
A1793                              COM3     0.5e-1 165.132e3

OUTPUT---1----*----2----*----3----*----4----*----5----*----6----*----7----*----8
2
PRESSURE
TEMPERATURE

TIMES----1----*----2----*----3----*----4----*----5----*----6----*----7----*----8
    7
   86400.0  604800.0  2.6352e6  3.1536e7  9.4608e7  1.8922e8  3.1536e8

FOFT ----1----*----2----*----3----*----4----*----5----*----6----*----7----*----8
A1793

ENDCY----1----*----2----*----3----*----4----*----5----*----6----*----7----*----8