hymar gas                                                                       
ROCKS----1----*----2----*----3----*----4----*----5----*----6----*----7----*----8
PPINJ    2    2500.0      0.98   1.0e-18   1.0e-18   1.0e-18       2.0    9.2e22
              1.4e-5       2.0                                                            
    3            1.0       0.0                                                  
    8                                                                           
PPOUT    1    2500.0      0.16   1.0e-19   1.0e-19   5.0e-19       2.0     920.0
              1.4e-5       2.0                                                            
CLAY     1    2500.0      0.16   1.0e-19   1.0e-19   5.0e-19       2.0     920.0
              1.4e-5       2.0                                                            
STEEL    2    2500.0      0.16   1.0e-19   1.0e-19   5.0e-19       2.0     920.0
              1.4e-5       2.0                                                            
    3            0.0       1.0                                                  
    8                                                                           
GRD_B    2    2500.0      0.16   1.0e-19   1.0e-19   5.0e-19       2.0     920.0
              1.4e-5       2.0                                                            
    3            0.0       1.0                                                  
    8                                                                           
GRD_T    2    2500.0      0.16   1.0e-19   1.0e-19   5.0e-19       2.0     920.0
              1.4e-5       2.0                                                            
    3            0.0       1.0                                                  
    8                                                                           
BUFFR    1    2500.0      0.14   1.0e-13   1.0e-13   1.0e-13       2.0     920.0
              1.4e-5       2.0                                                            
PRESB    1    2500.0      0.16   1.0e-13   1.0e-13   1.0e-13       2.0     920.0
              1.4e-5       2.0                                                            

RPCAP----1----*----2----*----3----*----4----*----5----*----6----*----7----*----8
   11            0.5       0.0       0.0                                        
   11           1.67     1.8e7       0.0       0.0       0.0       0.0      0.01
MULTI----1----*----2----*----3----*----4----*----5----*----6----*----7----*----8
    2    2    2    6                                                            
START----1----*----2----*----3----*----4----*----5----*----6----*----7----*----8
PARAM----1-MOP: 123456789*123456789*1234----*----5----*----6----*----7----*----8
 9  9999    999912115     22    9   8                                           
       0.0 1.96778e7       0.5       2.0                 9.8       8.0          
    1.0e-8                                                                      
           2000000.0                 0.0                19.0                    
INDOM----1----*----2----*----3----*----4----*----5----*----6----*----7----*----8
PPINJ                                                                           
           2000000.0                 1.0                19.0                    
PRESB                                                                           
           2000000.0                 0.0                19.0                    

TIMES----1----*----2----*----3----*----4----*----5----*----6----*----7----*----8
   20                                                                           
       0.0 1.03567e6 2.07135e6 3.10703e6 4.14270e6 5.17838e6 6.21406e6 7.24973e6
 8.28541e6 9.32109e6 1.03567e7 1.13924e7 1.24281e7 1.34637e7 1.44994e7 1.55351e7
 1.65708e7 1.76065e7 1.86421e7 1.96778e7                                        
FOFT ----1----*----2----*----3----*----4----*----5----*----6----*----7----*----8
A2Z51                                                                           
A2Z53                                                                           
A2Z55                                                                           
A2Z57                                                                           
A2Z60                                                                           
A2Z62                                                                           
A2Z64                                                                           
A2Z66                                                                           
A2Z69                                                                           
A2Z71                                                                           
A1367                                                                           

GENER----1----*----2----*----3----*----4----*----5----*----6----*----7----*----8
A1367                       70     COM21                                        
           0.0 2.560895999e5 5.121791999e5 7.686144000e5                        
 1.025049600e6 1.281571199e6     1537920.0 1.794268800e6                        
     2049840.0     2305584.0 2.561241600e6 2.817244800e6                        
     3073248.0 3.328905599e6 3.584908800e6     3840912.0                        
 4.096310399e6 4.351881599e6 4.607625600e6     4863456.0                        
 5.119286399e6     5375376.0 5.631379200e6 5.887641600e6                        
 6.143385600e6     6399216.0 6.656515200e6 6.914937600e6                        
     7173360.0 7.431523199e6 7.690204800e6 7.958995200e6                        
 8.215171199e6 8.903952000e6     9160473.6 9.416995200e6                        
     9673171.2 9.928742400e6    10184486.4    10440230.4                        
    10696060.8    10951632.0    11207548.8 1.146355200e7                        
 1.172249279e7    11978150.4    12233980.8    12490934.4                        
    12750912.0    13009334.4    13268275.2 1.352756159e7                        
    13786675.2    14045875.2 1.430472959e7    14570841.6                        
    14828918.4 1.508716800e7 1.534593599e7    15604444.8                        
    16119734.4 1.637824320e7    16895606.4 1.715411520e7                        
    17671910.4    17930937.6 1.844838719e7 1.922382720e7                        
 1.948259520e7 1.967785920e7                                                    
           0.0 6.1756014e-12 3.9480586e-12 5.4850257e-12                        
 1.0413604e-11 1.3540599e-11 2.2574551e-11 1.4705154e-11                        
 9.2840714e-12 9.3466619e-12 9.0022553e-12 1.1329092e-11                        
 1.3661828e-11 1.4547644e-11 1.0281550e-11 7.2405503e-12                        
 2.3116178e-11 2.8253145e-11 2.3413607e-11 2.6112375e-11                        
 2.6503513e-11 3.0743592e-11 3.9165576e-11 8.5624161e-11                        
 1.3891656e-10 8.2279797e-11 8.7130323e-11 6.8753875e-11                        
 6.9745145e-11 7.3582677e-11 6.6131925e-11 6.4359579e-11                        
 6.8106822e-11 7.9019848e-11 1.4370698e-11 2.7383904e-11                        
 4.2404660e-11 4.9317714e-11 5.3009283e-11 5.7125445e-11                        
 6.5085369e-11 6.2488942e-11 6.4124981e-11 6.3321591e-11                        
 6.1830348e-11 6.1215336e-11 6.4459548e-11 6.3710467e-11                        
 6.6048590e-11 6.4742328e-11 6.4303562e-11 6.4835332e-11                        
 6.3488315e-11 6.4239259e-11 6.3706516e-11 6.3924400e-11                        
 6.3743374e-11 6.4320680e-11 7.1152383e-12 9.2900512e-13                        
 1.5556208e-13 1.5483418e-13 4.6481326e-13 3.0966837e-13                        
 1.5478245e-13           0.0 1.2366069e-12 1.5488595e-13                        
           0.0 1.2299041e-12                                                    
           0.0           0.0           0.0           0.0                        
           0.0           0.0           0.0           0.0                        
           0.0           0.0           0.0           0.0                        
           0.0           0.0           0.0           0.0                        
           0.0           0.0           0.0           0.0                        
           0.0           0.0           0.0           0.0                        
           0.0           0.0           0.0           0.0                        
           0.0           0.0           0.0           0.0                        
           0.0           0.0           0.0           0.0                        
           0.0           0.0           0.0           0.0                        
           0.0           0.0           0.0           0.0                        
           0.0           0.0           0.0           0.0                        
           0.0           0.0           0.0           0.0                        
           0.0           0.0           0.0           0.0                        
           0.0           0.0           0.0           0.0                        
           0.0           0.0           0.0           0.0                        
           0.0           0.0           0.0           0.0                        
           0.0           0.0                                                    

OUTPU----1----*----2----*----3----*----4----*----5----*----6----*----7----*----8
2                                                                               
ABSOLUTE                0                                                       
COORDINATE                                                                      
ENDCY----1----*----2----*----3----*----4----*----5----*----6----*----7----*----8
