hymar gas                                                                       
ROCKS----1----*----2----*----3----*----4----*----5----*----6----*----7----*----8
PPINJ    2    2500.0      0.98   1.0e-18   1.0e-18   1.0e-18       2.0    9.2e22
              1.4e-5       2.0                                                            
    3            1.0       0.0                                                  
    8                                                                           
PPOUT    1    2500.0      0.16   1.0e-19   1.0e-19   5.0e-19       2.0     920.0
              1.4e-5       2.0                                                            
CLAY     1    2500.0      0.16   1.0e-19   1.0e-19   5.0e-19       2.0     920.0
              1.4e-5       2.0                                                            
STEEL    2    2500.0      0.16   1.0e-19   1.0e-19   5.0e-19       2.0     920.0
              1.4e-5       2.0                                                            
    3            0.0       1.0                                                  
    8                                                                           
GRD_B    2    2500.0      0.16   1.0e-19   1.0e-19   5.0e-19       2.0     920.0
              1.4e-5       2.0                                                            
    3            0.0       1.0                                                  
    8                                                                           
GRD_T    2    2500.0      0.16   1.0e-19   1.0e-19   5.0e-19       2.0     920.0
              1.4e-5       2.0                                                            
    3            0.0       1.0                                                  
    8                                                                           
BUFFR    1    2500.0      0.14   1.0e-13   1.0e-13   1.0e-13       2.0     920.0
              1.4e-5       2.0                                                            
PRESB    1    2500.0      0.16   1.0e-13   1.0e-13   1.0e-13       2.0     920.0
              1.4e-5       2.0                                                            

RPCAP----1----*----2----*----3----*----4----*----5----*----6----*----7----*----8
   11            0.5       0.0       0.0                                        
   11           1.67     1.8e7       0.0       0.0       0.0       0.0      0.01
MULTI----1----*----2----*----3----*----4----*----5----*----6----*----7----*----8
    2    2    2    6                                                            
START----1----*----2----*----3----*----4----*----5----*----6----*----7----*----8
PARAM----1-MOP: 123456789*123456789*1234----*----5----*----6----*----7----*----8
 9  9999    999912115     22    9   8                                           
 1.78126e7 3.74905e7       0.5       2.0                 9.8       8.0          
    1.0e-8                                                                      
           2000000.0                 0.0                19.0                    
INDOM----1----*----2----*----3----*----4----*----5----*----6----*----7----*----8
PPINJ                                                                           
           2000000.0                 1.0                19.0                    
PRESB                                                                           
           2000000.0                 0.0                19.0                    

TIMES----1----*----2----*----3----*----4----*----5----*----6----*----7----*----8
   20                                                                           
 1.78126e7 1.88483e7 1.98840e7 2.09196e7 2.19553e7 2.29910e7 2.40267e7 2.50623e7
 2.60980e7 2.71337e7 2.81694e7 2.92050e7 3.02407e7 3.12764e7 3.23121e7 3.33478e7
 3.43834e7 3.54191e7 3.64548e7 3.74905e7                                        
FOFT ----1----*----2----*----3----*----4----*----5----*----6----*----7----*----8
A2Z51                                                                           
A2Z53                                                                           
A2Z55                                                                           
A2Z57                                                                           
A2Z60                                                                           
A2Z62                                                                           
A2Z64                                                                           
A2Z66                                                                           
A2Z69                                                                           
A2Z71                                                                           
A1367                                                                           

OUTPU----1----*----2----*----3----*----4----*----5----*----6----*----7----*----8
2                                                                               
ABSOLUTE                0                                                       
COORDINATE                                                                      
ENDCY----1----*----2----*----3----*----4----*----5----*----6----*----7----*----8
