hymar gas                                                                       
ROCKS----1----*----2----*----3----*----4----*----5----*----6----*----7----*----8
PPINJ    2    2500.0      0.98   1.0e-16   1.0e-16   1.0e-16       2.0    9.2e22
              1.4e-5       2.0                                                            
    3            1.0       0.0                                                  
    8                                                                           
PPOUT    1    2500.0      0.16   1.0e-19   1.0e-19   5.0e-19       2.0     920.0
              1.4e-5       2.0                                                            
CLAY     1    2500.0      0.16   1.0e-19   1.0e-19   5.0e-19       2.0     920.0
              1.4e-5       2.0                                                            
STEEL    2    2500.0      0.16   1.0e-19   1.0e-19   5.0e-19       2.0     920.0
              1.4e-5       2.0                                                            
    3            0.0       1.0                                                  
    8                                                                           
GRD_B    2    2500.0      0.16   1.0e-19   1.0e-19   5.0e-19       2.0     920.0
              1.4e-5       2.0                                                            
    3            0.0       1.0                                                  
    8                                                                           
GRD_T    2    2500.0      0.16   1.0e-19   1.0e-19   5.0e-19       2.0     920.0
              1.4e-5       2.0                                                            
    3            0.0       1.0                                                  
    8                                                                           
BUFFR    1    2500.0      0.14   1.0e-13   1.0e-13   1.0e-13       2.0     920.0
              1.4e-5       2.0                                                            
PRESB    1    2500.0      0.16   1.0e-13   1.0e-13   1.0e-13       2.0     920.0
              1.4e-5       2.0                                                            

RPCAP----1----*----2----*----3----*----4----*----5----*----6----*----7----*----8
   11            0.5       0.0       0.0                                        
   11           1.67     1.8e7       0.0       0.0       0.0       0.0      0.01
MULTI----1----*----2----*----3----*----4----*----5----*----6----*----7----*----8
    2    2    2    6                                                            
START----1----*----2----*----3----*----4----*----5----*----6----*----7----*----8
PARAM----1-MOP: 123456789*123456789*1234----*----5----*----6----*----7----*----8
 9  9999    999912115     22    9   8                                           
 1.82287e7   3.900e7       0.5       2.0                 9.8       8.0          
    1.0e-8                                                                      
           2000000.0                 0.0                19.0                    
INDOM----1----*----2----*----3----*----4----*----5----*----6----*----7----*----8
PPINJ                                                                           
           2000000.0              10.999                19.0                    
PRESB                                                                           
           2000000.0                 0.0                19.0                    

TIMES----1----*----2----*----3----*----4----*----5----*----6----*----7----*----8
   20                                                                           
 1.82287e7 1.93224e7 2.04162e7 2.15099e7 2.26037e7 2.36974e7 2.47912e7 2.58849e7
 2.69787e7 2.80724e7 2.91662e7 3.02599e7 3.13537e7 3.24474e7 3.35412e7 3.46349e7
 3.57287e7 3.68224e7 3.79162e7 3.90099e7                                        
FOFT ----1----*----2----*----3----*----4----*----5----*----6----*----7----*----8
A2Z51                                                                           
A2Z53                                                                           
A2Z55                                                                           
A2Z57                                                                           
A2Z60                                                                           
A2Z62                                                                           
A2Z64                                                                           
A2Z66                                                                           
A2Z69                                                                           
A2Z71                                                                           
A1367                                                                           

GENER----1----*----2----*----3----*----4----*----5----*----6----*----7----*----8
A1367                      430     COM21                                        
           0.0       98004.0      196008.0      294012.0                        
      392016.0      490020.0      588024.0      686028.0                        
      784032.0      882036.0      980036.0     1078036.0                        
     1101196.0     1176046.0     1274046.0     1372056.0                        
     1470056.0     1568056.0     1666066.0     1764066.0                        
     1862076.0     1960076.0     2058076.0     2156086.0                        
     2254086.0     2300646.0     2352096.0     2450096.0                        
     2548096.0     2646106.0     2744106.0     2842116.0                        
     2940116.0     3038116.0     3136126.0     3234126.0                        
     3332136.0     3430136.0     3500096.0     3528136.0                        
     3626146.0     3724146.0     3822156.0     3920156.0                        
     4018156.0     4116166.0     4214166.0     4312176.0                        
     4410176.0     4508176.0     4606186.0     4699546.0                        
     4704186.0     4802196.0     4900196.0     4998196.0                        
     5096206.0     5194206.0     5292216.0     5390216.0                        
     5488216.0     5586226.0     5684226.0     5782236.0                        
     5880236.0     5898956.0     5978236.0     6076246.0                        
     6174246.0     6272256.0     6370256.0     6468256.0                        
     6566266.0     6664266.0     6762276.0     6860276.0                        
     6958276.0     7056286.0     7098406.0     7154286.0                        
     7252296.0     7350296.0     7448296.0     7546306.0                        
     7644306.0     7742316.0     7840316.0     7938316.0                        
     8036326.0     8134326.0     8232336.0     8297856.0                        
     8330336.0     8428336.0     8526346.0     8624346.0                        
     8722356.0     8820356.0     8918366.0     9016366.0                        
     9114366.0     9212376.0     9310376.0     9408386.0                        
     9497306.0     9506386.0     9604386.0     9702396.0                        
     9800396.0     9898406.0     9996396.0    10094396.0                        
    10192396.0    10290396.0    10388396.0    10486396.0                        
    10584396.0    10682396.0    10696676.0    10780396.0                        
    10878396.0    10976396.0    11074396.0    11172396.0                        
    11270396.0    11368396.0    11466396.0    11564396.0                        
    11662396.0    11760396.0    11858396.0    11896076.0                        
    11956396.0    12054396.0    12152496.0    12250496.0                        
    12348496.0    12446496.0    12544496.0    12642496.0                        
    12740496.0    12838496.0    12936496.0    13034496.0                        
    13095456.0    13132496.0    13230496.0    13328496.0                        
    13426496.0    13524496.0    13622496.0    13720496.0                        
    13818496.0    13916496.0    14014496.0    14112496.0                        
    14210496.0    14294856.0    14308496.0    14406496.0                        
    14504496.0    14602596.0    14700596.0    14798596.0                        
    14896596.0    14994596.0    15092596.0    15190596.0                        
    15288596.0    15386596.0    15484596.0    15494196.0                        
    15582596.0    15680596.0    15778596.0    15876596.0                        
    15974596.0    16072596.0    16170596.0    16268596.0                        
    16366596.0    16464596.0    16562596.0    16660596.0                        
    16693596.0    16758596.0    16856596.0    16954596.0                        
    17052696.0    17150696.0    17248696.0    17346696.0                        
    17444696.0    17542696.0    17640696.0    17738696.0                        
    17836696.0    17892976.0    17934696.0    18032696.0                        
    18130696.0    18228696.0    18326696.0    18424696.0                        
    18522696.0    18620696.0    18718696.0    18816696.0                        
    18914696.0    19012696.0    19089736.0    19110696.0                        
    19208696.0    19306696.0    19404796.0    19502796.0                        
    19600796.0    19698796.0    19796796.0    19894796.0                        
    19992796.0    20090796.0    20188796.0    20286796.0                        
    20289076.0    20384796.0    20482796.0    20580796.0                        
    20678796.0    20776796.0    20874796.0    20972796.0                        
    21070796.0    21168796.0    21266796.0    21364796.0                        
    21462796.0    21488476.0    21560796.0    21658796.0                        
    21756796.0    21854896.0    21952896.0    22050896.0                        
    22148896.0    22246896.0    22344896.0    22442896.0                        
    22540896.0    22638896.0    22687856.0    22736896.0                        
    22834896.0    22932896.0    23030896.0    23128896.0                        
    23226896.0    23324896.0    23422896.0    23520896.0                        
    23618896.0    23716896.0    23814896.0    23887256.0                        
    23912896.0    24010896.0    24108896.0    24206896.0                        
    24304996.0    24402996.0    24500996.0    24598996.0                        
    24696996.0    24794996.0    24892996.0    24990996.0                        
    25086636.0    25088996.0    25186996.0    25284996.0                        
    25382996.0    25480996.0    25578996.0    25676996.0                        
    25774996.0    25872996.0    25970996.0    26068996.0                        
    26166996.0    26264996.0    26285996.0    26362996.0                        
    26460996.0    26558996.0    26656996.0    26755096.0                        
    26853096.0    26951096.0    27049096.0    27147096.0                        
    27245096.0    27343096.0    27441096.0    27485376.0                        
    27539096.0    27637096.0    27735096.0    27833096.0                        
    27931096.0    28029096.0    28127096.0    28225096.0                        
    28323096.0    28421096.0    28519096.0    28617096.0                        
    28684776.0    28715096.0    28813096.0    28911096.0                        
    29009096.0    29107096.0    29205196.0    29303196.0                        
    29401196.0    29499196.0    29597196.0    29695196.0                        
    29793196.0    29884156.0    29891196.0    29989196.0                        
    30087196.0    30185196.0    30283196.0    30381196.0                        
    30479196.0    30577196.0    30675196.0    30773196.0                        
    30871196.0    30969196.0    31067196.0    31083516.0                        
    31165196.0    31263196.0    31361196.0    31459196.0                        
    31557196.0    31655296.0    31753296.0    31851296.0                        
    31949296.0    32047296.0    32145296.0    32243296.0                        
    32282896.0    32341296.0    32439296.0    32537296.0                        
    32635296.0    32733296.0    32831296.0    32929296.0                        
    33027296.0    33125296.0    33223296.0    33321296.0                        
    33419296.0    33482296.0    33517296.0    33615296.0                        
    33713296.0    33811296.0    33909296.0    34007296.0                        
    34105396.0    34203396.0    34301396.0    34399396.0                        
    34497396.0    34595396.0    34681676.0    34693396.0                        
    34791396.0    34889396.0    34987396.0    35085396.0                        
    35183396.0    35281396.0    35379396.0    35477396.0                        
    35575396.0    35673396.0    35771396.0    35869396.0                        
    35881036.0    35967396.0    36065396.0    36163396.0                        
    36261396.0    36359396.0    36457496.0    36555496.0                        
    36653496.0    36751496.0    36849496.0    36947496.0                        
    37045496.0    37080416.0    37143496.0    37241496.0                        
    37339496.0    37437496.0    37535496.0    37633496.0                        
    37731496.0    37829496.0    37927496.0    38025496.0                        
    38123496.0    38221496.0    38279816.0    38319496.0                        
    38417496.0    38515496.0    38613496.0    38711496.0                        
    38809496.0    39005596.0                                                    
          -0.0          -0.0          -0.0          -0.0                        
          -0.0          -0.0          -0.0          -0.0                        
          -0.0          -0.0          -0.0          -0.0                        
          -0.0          -0.0          -0.0          -0.0                        
          -0.0          -0.0          -0.0          -0.0                        
          -0.0          -0.0          -0.0          -0.0                        
          -0.0          -0.0          -0.0          -0.0                        
          -0.0          -0.0          -0.0          -0.0                        
          -0.0          -0.0          -0.0          -0.0                        
          -0.0          -0.0          -0.0          -0.0                        
          -0.0          -0.0          -0.0          -0.0                        
          -0.0          -0.0          -0.0          -0.0                        
          -0.0          -0.0          -0.0          -0.0                        
          -0.0          -0.0          -0.0          -0.0                        
          -0.0          -0.0          -0.0          -0.0                        
          -0.0          -0.0          -0.0          -0.0                        
          -0.0          -0.0          -0.0          -0.0                        
          -0.0          -0.0          -0.0          -0.0                        
          -0.0          -0.0          -0.0          -0.0                        
          -0.0          -0.0          -0.0          -0.0                        
          -0.0          -0.0          -0.0          -0.0                        
          -0.0          -0.0          -0.0          -0.0                        
          -0.0          -0.0          -0.0          -0.0                        
          -0.0          -0.0          -0.0          -0.0                        
          -0.0          -0.0          -0.0          -0.0                        
          -0.0          -0.0          -0.0          -0.0                        
          -0.0          -0.0          -0.0          -0.0                        
          -0.0          -0.0          -0.0          -0.0                        
          -0.0          -0.0          -0.0          -0.0                        
          -0.0          -0.0          -0.0          -0.0                        
          -0.0          -0.0          -0.0          -0.0                        
          -0.0          -0.0          -0.0          -0.0                        
          -0.0          -0.0          -0.0          -0.0                        
          -0.0          -0.0          -0.0          -0.0                        
          -0.0          -0.0          -0.0          -0.0                        
          -0.0          -0.0          -0.0          -0.0                        
          -0.0          -0.0          -0.0          -0.0                        
          -0.0          -0.0          -0.0          -0.0                        
          -0.0          -0.0          -0.0          -0.0                        
          -0.0          -0.0          -0.0          -0.0                        
          -0.0          -0.0          -0.0          -0.0                        
          -0.0          -0.0          -0.0          -0.0                        
          -0.0          -0.0          -0.0          -0.0                        
          -0.0          -0.0          -0.0          -0.0                        
          -0.0          -0.0          -0.0          -0.0                        
          -0.0          -0.0          -0.0          -0.0                        
          -0.0          -0.0          -0.0          -0.0                        
          -0.0          -0.0          -0.0          -0.0                        
          -0.0          -0.0          -0.0          -0.0                        
          -0.0          -0.0          -0.0          -0.0                        
          -0.0 2.4715184e-11 5.3634523e-11 5.5689813e-11                        
 5.7574483e-11 5.9654861e-11 6.2070001e-11 6.4579582e-11                        
 6.6923280e-11 6.9903616e-11 7.2134891e-11 7.2730067e-11                        
 7.5675650e-11 7.9325066e-11 8.2547405e-11 8.6515788e-11                        
 5.1379946e-12 5.1449770e-12 1.8177915e-12          -0.0                        
 2.1226509e-12          -0.0 1.5175005e-12          -0.0                        
 2.1254445e-12 1.8225826e-12          -0.0 6.9975784e-12                        
 7.0104079e-12 7.0232845e-12 1.0715865e-11 1.0745301e-11                        
 1.0774907e-11 1.0804698e-11 1.1144215e-11 1.0864762e-11                        
 1.0895031e-11 1.0902991e-11 1.1237634e-11 1.1269255e-11                        
 1.0987136e-11 1.1333031e-11 1.1365116e-11 1.1713977e-11                        
 1.1429815e-11 1.1780828e-11 1.1814531e-11 1.1528173e-11                        
 1.1561316e-11 1.1916731e-11 1.1933926e-11 1.1628194e-11                        
 1.1985868e-11 1.1695831e-11 1.1729933e-11 1.2091076e-11                        
 1.2454428e-11 1.2162493e-11 1.2857777e-11 1.2234497e-11                        
 1.2602436e-11 1.2639883e-11 1.3011171e-11 1.2705541e-11                        
 1.2380885e-11 1.2753728e-11 1.2792183e-11 1.3506322e-11                        
 1.2870111e-11 1.3249064e-11 1.3289430e-11 1.2988245e-11                        
 1.3370920e-11 1.3412057e-11 1.3453458e-11 1.3841303e-11                        
 1.3536328e-11 1.3884456e-11 1.3579621e-11 1.3971365e-11                        
 1.3664806e-11 1.4059213e-11 1.4103497e-11 1.4148074e-11                        
 1.4548073e-11 1.4594666e-11 1.4284315e-11 1.4330046e-11                        
 1.4735471e-11 1.4782950e-11 1.4793163e-11 1.5192459e-11                        
 1.4878828e-11 1.5291313e-11 5.8395152e-12          -0.0                        
 5.4879296e-12 1.5409656e-11 1.5460272e-11 1.5511258e-11                        
 1.5562767e-11 1.5614620e-11 1.5666876e-11 1.5690624e-11                        
 1.6093805e-11 1.6148076e-11 1.6579363e-11 1.6257400e-11                        
 1.6691976e-11 1.6368202e-11 1.6424170e-11 1.6480493e-11                        
 1.6921778e-11 1.6980198e-11 1.7039039e-11 1.7486886e-11                        
 1.7139451e-11 1.7547914e-11 1.7218060e-11 1.7278580e-11                        
 1.6945393e-11 1.7796258e-11 1.7462597e-11 1.7923075e-11                        
 1.7987129e-11 1.8051145e-11 1.8115334e-11 1.8180006e-11                        
 1.8651441e-11 1.9121307e-11 1.8719366e-11 1.8379347e-11                        
 1.8856674e-11 1.8926078e-11 1.9409195e-11 1.9895970e-11                        
 1.9554213e-11 2.0044675e-11 1.9700487e-11 2.0195423e-11                        
 2.0272009e-11 2.0349177e-11 2.0426463e-11 2.0013558e-11                        
 2.0504263e-11 2.1011514e-11 2.1092395e-11 2.1173898e-11                        
 2.1256096e-11 2.1339064e-11 2.0985399e-11 2.1945640e-11                        
 2.1591518e-11 2.2119390e-11 2.2207372e-11 2.2741977e-11                        
 2.2332092e-11 2.2833161e-11 2.2925080e-11 2.3469068e-11                        
 2.3111028e-11 2.3205064e-11 2.3756707e-11 2.3854093e-11                        
 2.3952279e-11          -0.0 1.8459516e-12          -0.0                        
 1.3853125e-12          -0.0          -0.0          -0.0                        
          -0.0          -0.0          -0.0          -0.0                        
 6.4679889e-12 6.4681130e-12 6.4682371e-12 6.9303869e-12                        
          -0.0          -0.0 4.6205785e-13          -0.0                        
          -0.0 9.2419091e-13          -0.0          -0.0                        
          -0.0          -0.0          -0.0 6.9322024e-12                        
 6.9323354e-12          -0.0          -0.0          -0.0                        
          -0.0          -0.0          -0.0          -0.0                        
          -0.0          -0.0          -0.0          -0.0                        
          -0.0          -0.0          -0.0 6.9345451e-12                        
          -0.0 4.6231504e-13 6.4724906e-12          -0.0                        
          -0.0          -0.0 6.9349929e-12          -0.0                        
          -0.0          -0.0          -0.0          -0.0                        
          -0.0          -0.0          -0.0          -0.0                        
          -0.0          -0.0          -0.0          -0.0                        
          -0.0          -0.0                                                    
           0.0           0.0           0.0           0.0                        
           0.0           0.0           0.0           0.0                        
           0.0           0.0           0.0           0.0                        
           0.0           0.0           0.0           0.0                        
           0.0           0.0           0.0           0.0                        
           0.0           0.0           0.0           0.0                        
           0.0           0.0           0.0           0.0                        
           0.0           0.0           0.0           0.0                        
           0.0           0.0           0.0           0.0                        
           0.0           0.0           0.0           0.0                        
           0.0           0.0           0.0           0.0                        
           0.0           0.0           0.0           0.0                        
           0.0           0.0           0.0           0.0                        
           0.0           0.0           0.0           0.0                        
           0.0           0.0           0.0           0.0                        
           0.0           0.0           0.0           0.0                        
           0.0           0.0           0.0           0.0                        
           0.0           0.0           0.0           0.0                        
           0.0           0.0           0.0           0.0                        
           0.0           0.0           0.0           0.0                        
           0.0           0.0           0.0           0.0                        
           0.0           0.0           0.0           0.0                        
           0.0           0.0           0.0           0.0                        
           0.0           0.0           0.0           0.0                        
           0.0           0.0           0.0           0.0                        
           0.0           0.0           0.0           0.0                        
           0.0           0.0           0.0           0.0                        
           0.0           0.0           0.0           0.0                        
           0.0           0.0           0.0           0.0                        
           0.0           0.0           0.0           0.0                        
           0.0           0.0           0.0           0.0                        
           0.0           0.0           0.0           0.0                        
           0.0           0.0           0.0           0.0                        
           0.0           0.0           0.0           0.0                        
           0.0           0.0           0.0           0.0                        
           0.0           0.0           0.0           0.0                        
           0.0           0.0           0.0           0.0                        
           0.0           0.0           0.0           0.0                        
           0.0           0.0           0.0           0.0                        
           0.0           0.0           0.0           0.0                        
           0.0           0.0           0.0           0.0                        
           0.0           0.0           0.0           0.0                        
           0.0           0.0           0.0           0.0                        
           0.0           0.0           0.0           0.0                        
           0.0           0.0           0.0           0.0                        
           0.0           0.0           0.0           0.0                        
           0.0           0.0           0.0           0.0                        
           0.0           0.0           0.0           0.0                        
           0.0           0.0           0.0           0.0                        
           0.0           0.0           0.0           0.0                        
           0.0           0.0           0.0           0.0                        
           0.0           0.0           0.0           0.0                        
           0.0           0.0           0.0           0.0                        
           0.0           0.0           0.0           0.0                        
           0.0           0.0           0.0           0.0                        
           0.0           0.0           0.0           0.0                        
           0.0           0.0           0.0           0.0                        
           0.0           0.0           0.0           0.0                        
           0.0           0.0           0.0           0.0                        
           0.0           0.0           0.0           0.0                        
           0.0           0.0           0.0           0.0                        
           0.0           0.0           0.0           0.0                        
           0.0           0.0           0.0           0.0                        
           0.0           0.0           0.0           0.0                        
           0.0           0.0           0.0           0.0                        
           0.0           0.0           0.0           0.0                        
           0.0           0.0           0.0           0.0                        
           0.0           0.0           0.0           0.0                        
           0.0           0.0           0.0           0.0                        
           0.0           0.0           0.0           0.0                        
           0.0           0.0           0.0           0.0                        
           0.0           0.0           0.0           0.0                        
           0.0           0.0           0.0           0.0                        
           0.0           0.0           0.0           0.0                        
           0.0           0.0           0.0           0.0                        
           0.0           0.0           0.0           0.0                        
           0.0           0.0           0.0           0.0                        
           0.0           0.0           0.0           0.0                        
           0.0           0.0           0.0           0.0                        
           0.0           0.0           0.0           0.0                        
           0.0           0.0           0.0           0.0                        
           0.0           0.0           0.0           0.0                        
           0.0           0.0           0.0           0.0                        
           0.0           0.0           0.0           0.0                        
           0.0           0.0           0.0           0.0                        
           0.0           0.0           0.0           0.0                        
           0.0           0.0           0.0           0.0                        
           0.0           0.0           0.0           0.0                        
           0.0           0.0           0.0           0.0                        
           0.0           0.0           0.0           0.0                        
           0.0           0.0           0.0           0.0                        
           0.0           0.0           0.0           0.0                        