hymar gas                                                                       
ROCKS----1----*----2----*----3----*----4----*----5----*----6----*----7----*----8
PPINJ    2    2500.0      0.98   1.0e-17   1.0e-17   1.0e-17       2.0    9.2e22
              1.4e-5       2.0                                                            
    3            1.0       0.0                                                  
    8                                                                           
PPOUT    1    2500.0      0.16   1.0e-20   1.0e-20   3.0e-20       2.0     920.0
              1.4e-5       2.0                                                            
CLAY     1    2500.0      0.16   1.0e-20   1.0e-20   3.0e-20       2.0     920.0
              1.4e-5       2.0                                                            
STEEL    2    2500.0      0.12   1.0e-20   1.0e-20   3.0e-20       2.0     920.0
              1.4e-5       2.0                                                            
   11            0.5       0.0       0.0                                        
   11           1.67    1.8e10       0.0       0.0       0.0       0.0      0.01
GRD_B    2    2500.0      0.12   1.0e-20   1.0e-20   3.0e-20       2.0     920.0
              1.4e-5       2.0                                                            
    3            0.0       1.0                                                  
    8                                                                           
GRD_T    2    2500.0      0.12   1.0e-20   1.0e-20   3.0e-20       2.0     920.0
              1.4e-5       2.0                                                            
    3            0.0       1.0                                                  
    8                                                                           
BUFFR    1    2500.0      0.14   1.0e-13   1.0e-13   1.0e-13       2.0     920.0
              1.4e-5       2.0                                                            
PRESB    1    2500.0      0.12   1.0e-13   1.0e-13   1.0e-13       2.0     920.0
              1.4e-5       2.0                                                            

RPCAP----1----*----2----*----3----*----4----*----5----*----6----*----7----*----8
   11            0.5       0.0       0.0                                        
   11           1.67     1.8e7       0.0       0.0       0.0       0.0      0.01
MULTI----1----*----2----*----3----*----4----*----5----*----6----*----7----*----8
    2    2    2    6                                                            
START----1----*----2----*----3----*----4----*----5----*----6----*----7----*----8
PARAM----1-MOP: 123456789*123456789*1234----*----5----*----6----*----7----*----8
 9  9999    999912115     02    9   8                                           
 1.75921e7 3.86231e7       5.0     150.0                 9.8       8.0          
    1.0e-8                                                                      
           2100000.0                 0.0                19.0                    
INDOM----1----*----2----*----3----*----4----*----5----*----6----*----7----*----8
PPINJ                                                                           
           2100000.0                 1.0                19.0                    
PRESB                                                                           
           2000000.0                 0.0                19.0                    

TIMES----1----*----2----*----3----*----4----*----5----*----6----*----7----*----8
   20                                                                           
 1.75921e7 1.86989e7 1.98058e7 2.09127e7 2.20196e7 2.31265e7 2.42334e7 2.53403e7
 2.64472e7 2.75541e7 2.86610e7 2.97679e7 3.08748e7 3.19817e7 3.30886e7 3.41955e7
 3.53024e7 3.64093e7 3.75161e7 3.86230e7                                        
FOFT ----1----*----2----*----3----*----4----*----5----*----6----*----7----*----8
A2Z51                                                                           
A2Z53                                                                           
A2Z55                                                                           
A2Z57                                                                           
A2Z60                                                                           
A2Z62                                                                           
A2Z64                                                                           
A2Z66                                                                           
A2Z69                                                                           
A2Z71                                                                           
A1367                                                                           

GENER----1----*----2----*----3----*----4----*----5----*----6----*----7----*----8
A1367                      416     COM21                                        
    17592100.0    17645100.0    17698100.0    17751000.0                        
    17804000.0    17857000.0    17910000.0    17962900.0                        
    18015900.0    18068900.0    18121900.0    18174800.0                        
    18227800.0    18280800.0    18333800.0    18386700.0                        
    18439700.0    18492700.0    18545700.0    18598600.0                        
    18651600.0    18704600.0    18736880.0    18757600.0                        
    18810500.0    18863500.0    18916500.0    18969500.0                        
    19022400.0    19075400.0    19128400.0    19181400.0                        
    19234300.0    19287300.0    19340300.0    19393300.0                        
    19446200.0    19499200.0    19552200.0    19605200.0                        
    19658100.0    19711100.0    19764100.0    19817100.0                        
    19870000.0    19923000.0    19935960.0    19976000.0                        
    20029000.0    20081900.0    20134900.0    20187900.0                        
    20240900.0    20293800.0    20346800.0    20399800.0                        
    20452800.0    20505700.0    20558700.0    20611700.0                        
    20664700.0    20717600.0    20770600.0    20823600.0                        
    20876600.0    20929500.0    20982500.0    21035500.0                        
    21088500.0    21135060.0    21141400.0    21194400.0                        
    21247400.0    21300400.0    21353300.0    21406300.0                        
    21459300.0    21512300.0    21565200.0    21618200.0                        
    21671200.0    21724200.0    21777100.0    21830100.0                        
    21883100.0    21936100.0    21989000.0    22042000.0                        
    22095000.0    22148000.0    22200900.0    22253900.0                        
    22306900.0    22334140.0    22359900.0    22412800.0                        
    22465800.0    22518800.0    22571800.0    22624700.0                        
    22677700.0    22730700.0    22783700.0    22836600.0                        
    22889600.0    22942600.0    22995600.0    23048500.0                        
    23101500.0    23154500.0    23207500.0    23260400.0                        
    23313400.0    23366400.0    23419400.0    23472300.0                        
    23525300.0    23533220.0    23578300.0    23631300.0                        
    23684200.0    23737200.0    23790200.0    23843200.0                        
    23896100.0    23949100.0    24002100.0    24055100.0                        
    24108000.0    24161000.0    24214000.0    24267000.0                        
    24319900.0    24372900.0    24425900.0    24478900.0                        
    24531800.0    24584800.0    24637800.0    24690800.0                        
    24732320.0    24743700.0    24796700.0    24849700.0                        
    24902700.0    24955600.0    25008600.0    25061600.0                        
    25114600.0    25167500.0    25220500.0    25273500.0                        
    25326500.0    25379400.0    25432400.0    25485400.0                        
    25538400.0    25591300.0    25644300.0    25697300.0                        
    25750300.0    25803200.0    25856200.0    25909200.0                        
    25931400.0    25962200.0    26015100.0    26068100.0                        
    26121100.0    26174100.0    26227000.0    26280000.0                        
    26333000.0    26386000.0    26438900.0    26491900.0                        
    26544900.0    26597900.0    26650800.0    26703800.0                        
    26756800.0    26809800.0    26862700.0    26915700.0                        
    26968700.0    27021700.0    27074600.0    27127600.0                        
    27130480.0    27180600.0    27233600.0    27286500.0                        
    27339500.0    27392500.0    27445400.0    27498400.0                        
    27551400.0    27604400.0    27657300.0    27710300.0                        
    27763300.0    27816300.0    27869200.0    27922200.0                        
    27975200.0    28028200.0    28081100.0    28134100.0                        
    28187100.0    28240100.0    28293000.0    28329600.0                        
    28346000.0    28399000.0    28452000.0    28504900.0                        
    28557900.0    28610900.0    28663900.0    28716800.0                        
    28769800.0    28822800.0    28875800.0    28928700.0                        
    28981700.0    29034700.0    29087700.0    29140600.0                        
    29193600.0    29246600.0    29299600.0    29352500.0                        
    29405500.0    29458500.0    29511500.0    29528660.0                        
    29564400.0    29617400.0    29670400.0    29723400.0                        
    29776300.0    29829300.0    29882300.0    29935300.0                        
    29988200.0    30041200.0    30094200.0    30147200.0                        
    30200100.0    30253100.0    30306100.0    30359100.0                        
    30412000.0    30465000.0    30518000.0    30571000.0                        
    30623900.0    30676900.0    30727780.0    30729900.0                        
    30782900.0    30835800.0    30888800.0    30941800.0                        
    30994800.0    31047700.0    31100700.0    31153700.0                        
    31206700.0    31259600.0    31312600.0    31365600.0                        
    31418600.0    31471500.0    31524500.0    31577500.0                        
    31630500.0    31683400.0    31736400.0    31789400.0                        
    31842400.0    31895300.0    31926860.0    31948300.0                        
    32001300.0    32054300.0    32107200.0    32160200.0                        
    32213200.0    32266200.0    32319100.0    32372100.0                        
    32425100.0    32478100.0    32531000.0    32584000.0                        
    32637000.0    32690000.0    32742900.0    32795900.0                        
    32848900.0    32901900.0    32954800.0    33007800.0                        
    33060800.0    33113800.0    33125920.0    33166700.0                        
    33219700.0    33272700.0    33325700.0    33378600.0                        
    33431600.0    33484600.0    33537600.0    33590500.0                        
    33643500.0    33696500.0    33749500.0    33802400.0                        
    33855400.0    33908400.0    33961400.0    34014300.0                        
    34067300.0    34120300.0    34173300.0    34226200.0                        
    34279200.0    34325040.0    34332200.0    34385200.0                        
    34438100.0    34491100.0    34544100.0    34597100.0                        
    34650000.0    34703000.0    34756000.0    34809000.0                        
    34861900.0    34914900.0    34967900.0    35020900.0                        
    35073800.0    35126800.0    35179800.0    35232800.0                        
    35285700.0    35338700.0    35391700.0    35444700.0                        
    35497600.0    35524120.0    35550600.0    35603600.0                        
    35656600.0    35709500.0    35762500.0    35815500.0                        
    35868500.0    35921400.0    35974400.0    36027400.0                        
    36080400.0    36133300.0    36186300.0    36239300.0                        
    36292300.0    36345200.0    36398200.0    36451200.0                        
    36504200.0    36557100.0    36610100.0    36663100.0                        
    36716100.0    36723180.0    36769000.0    36822000.0                        
    36875000.0    36928000.0    36980900.0    37033900.0                        
    37086900.0    37139800.0    37192800.0    37245800.0                        
    37298800.0    37351700.0    37404700.0    37457700.0                        
    37510700.0    37563600.0    37616600.0    37669600.0                        
    37722600.0    37775500.0    37828500.0    37881500.0                        
    37922300.0    37934500.0    37987400.0    38040400.0                        
    38093400.0    38146400.0    38199300.0    38252300.0                        
    38305300.0    38358300.0    38411200.0    38464200.0                        
    38517200.0    38570200.0    38623100.0    38676100.0                        
          -0.0          -0.0          -0.0          -0.0                        
          -0.0 1.1031680e-11 2.1656755e-11 2.1492110e-11                        
 2.1822324e-11 3.6102401e-11 5.5769099e-11 5.6567498e-11                        
 5.7638737e-11 5.9249013e-11 6.0107667e-11 6.1774617e-11                        
 6.2943523e-11 6.4136738e-11 6.5627386e-11 6.6322628e-11                        
 6.8424936e-11 6.9448221e-11 6.9909884e-11 7.1062277e-11                        
 7.2423132e-11 7.4106708e-11 7.5828463e-11 7.7886853e-11                        
 7.9089152e-11 8.1233878e-11 8.2814028e-11 8.5055035e-11                        
 8.6402587e-11 8.9062065e-11 9.1464722e-11 2.9334552e-12                        
          -0.0 2.6092988e-12          -0.0 6.5273687e-13                        
 3.9169463e-12          -0.0 3.2656738e-13          -0.0                        
 2.9408308e-12 3.2682274e-12 3.2685847e-12          -0.0                        
          -0.0 2.6163463e-12          -0.0          -0.0                        
          -0.0 2.2919572e-12          -0.0 3.6031649e-12                        
 3.2764754e-12 1.1146016e-11 1.0834626e-11 1.1508751e-11                        
 1.1196965e-11 1.1543846e-11 1.1561489e-11 1.1910017e-11                        
 1.1596936e-11 1.1614708e-11 1.1632569e-11 1.1983356e-11                        
 1.1668450e-11 1.1684287e-11 1.2020345e-11 1.1704526e-11                        
 1.2057599e-11 1.1740859e-11 1.2095049e-11 1.2113877e-11                        
 1.1795744e-11 1.1476616e-11 1.1832606e-11 1.1851145e-11                        
 1.2208871e-11 1.1888391e-11 1.1907065e-11 1.2266574e-11                        
 1.2285941e-11 1.2305369e-11 1.2324821e-11 1.2344370e-11                        
 1.2363986e-11 1.2039670e-11 1.2403363e-11 1.2423163e-11                        
 1.2097386e-11 1.2453261e-11 1.2462955e-11 1.2829655e-11                        
 1.2502962e-11 1.2523083e-11 1.2543267e-11 1.2912464e-11                        
 1.2583794e-11 1.2954289e-11 1.2624621e-11 1.2996347e-11                        
 1.2665673e-11 1.3038717e-11 1.3060003e-11 1.2727775e-11                        
 1.2748623e-11 1.3124250e-11 1.3145816e-11 1.3167420e-11                        
 1.3189129e-11 1.3567960e-11 1.3232761e-11 1.3254652e-11                        
 1.3276647e-11 1.3279941e-11 1.3298720e-11 1.3680889e-11                        
 1.3343043e-11 1.3726559e-11 1.3387702e-11 1.4135021e-11                        
 1.3795663e-11 1.3455213e-11 1.3842150e-11 1.3865511e-11                        
 1.3888906e-11 1.3912419e-11 1.3936021e-11 1.4327058e-11                        
 1.3983409e-11 1.4375859e-11 1.4031169e-11 1.4055169e-11                        
 1.4449710e-11 1.4474516e-11 1.4499400e-11 1.4524372e-11                        
 1.4543998e-11 1.4549385e-11 1.4574529e-11 1.4225409e-11                        
 1.4250078e-11 1.4650445e-11 1.4299610e-11 1.4701499e-11                        
 1.4727172e-11 1.4374607e-11 1.5157681e-11 1.5184289e-11                        
 1.4830716e-11 1.5237734e-11 1.4883008e-11 1.5291608e-11                        
 1.5318688e-11 1.5345813e-11 1.5373082e-11 1.5400451e-11                        
 1.5042220e-11 1.5455431e-11 1.5483090e-11 1.5510853e-11                        
 1.5522509e-11 1.5538715e-11 1.5177452e-11 1.5594682e-11                        
 1.5622845e-11 1.6042383e-11          -0.0          -0.0                        
          -0.0          -0.0          -0.0          -0.0                        
          -0.0          -0.0 1.6055983e-11 1.5692788e-11                        
 1.5721305e-11 1.6143674e-11 1.6173060e-11 1.6202611e-11                        
 1.6232266e-11 1.5865401e-11 1.6291853e-11 1.6321838e-11                        
 1.6323471e-11 1.6351927e-11 1.6781707e-11 1.6412399e-11                        
 1.6843872e-11 1.6875158e-11 1.6101430e-11 1.7341311e-11                        
 1.6565620e-11 1.7001418e-11 1.6627682e-11 1.7065228e-11                        
 1.6690261e-11 1.7129577e-11 1.6753253e-11 1.6784959e-11                        
 1.7637114e-11 1.7259672e-11 1.7704183e-11 1.7325428e-11                        
 1.7771828e-11 1.7391757e-11 1.7839925e-11 1.7448151e-11                        
 1.7874206e-11 1.7908608e-11 1.7525872e-11 1.7141587e-11                        
 1.8012571e-11 1.8047513e-11 1.8082591e-11 1.8539085e-11                        
 1.8575251e-11 1.8611561e-11 1.8224204e-11 1.8259907e-11                        
 1.8721298e-11 1.8758179e-11 1.8795215e-11 1.8832320e-11                        
 1.8869647e-11 1.8907112e-11 1.8514175e-11 1.8982437e-11                        
 1.9020360e-11 1.9489414e-11 1.9528499e-11 1.9106931e-11                        
 1.9132829e-11 1.9171350e-11 1.9210026e-11 1.9686335e-11                        
 1.8849419e-11 1.9766173e-11 1.9806365e-11 1.9846736e-11                        
 1.9887190e-11 2.0370722e-11 1.9968739e-11 2.0009769e-11                        
 2.0050880e-11 2.0092242e-11 2.0581175e-11 2.0623806e-11                        
 2.0666534e-11 2.1159729e-11 2.0752690e-11 2.0796031e-11                        
 2.0839474e-11 2.1337165e-11 2.0925315e-11 2.1382010e-11                        
 2.1427041e-11 2.0558464e-11 2.1517592e-11 2.1563199e-11                        
 2.1149225e-11 2.1194159e-11 2.1701086e-11 2.1747466e-11                        
 2.1794046e-11 2.1840743e-11 2.1887722e-11 2.2401609e-11                        
 2.2449992e-11 2.2498511e-11 2.2077586e-11 2.2596353e-11                        
 2.2645589e-11 2.2694950e-11 2.3218465e-11 2.3269382e-11                        
 2.3320533e-11 2.2417857e-11 2.2447299e-11 2.2945375e-11                        
 2.2517056e-11 2.3047132e-11 2.3098254e-11 2.3632000e-11                        
 2.3684784e-11 2.3737771e-11 2.3790895e-11 2.3844350e-11                        
 2.4385770e-11 2.4440810e-11 2.4495988e-11 2.4551534e-11                        
 2.3623035e-11 2.4663368e-11 2.4719559e-11 2.4776110e-11                        
 2.4832929e-11 2.4890005e-11          -0.0          -0.0                        
          -0.0          -0.0          -0.0          -0.0                        
          -0.0          -0.0          -0.0          -0.0                        
          -0.0 9.9715772e-13 9.9729698e-13          -0.0                        
 6.9834125e-12          -0.0          -0.0          -0.0                        
          -0.0          -0.0          -0.0          -0.0                        
          -0.0          -0.0          -0.0          -0.0                        
          -0.0          -0.0          -0.0          -0.0                        
          -0.0          -0.0          -0.0          -0.0                        
          -0.0          -0.0          -0.0          -0.0                        
          -0.0          -0.0          -0.0 9.9811096e-13                        
          -0.0          -0.0          -0.0          -0.0                        
          -0.0          -0.0          -0.0          -0.0                        
 1.9964546e-12          -0.0          -0.0 9.9823321e-13                        
          -0.0          -0.0          -0.0          -0.0                        
          -0.0 9.9825088e-13          -0.0 1.9965135e-12                        
          -0.0          -0.0 1.9965312e-12 1.9965371e-12                        
          -0.0          -0.0          -0.0 6.9879968e-12                        
 5.9897723e-12 5.9898330e-12          -0.0 6.9882803e-12                        
 5.9900153e-12          -0.0          -0.0          -0.0                        
          -0.0          -0.0 5.9903190e-12          -0.0                        
 3.9936215e-12          -0.0          -0.0 4.9921368e-12                        
 3.9937387e-12          -0.0          -0.0          -0.0                        
 4.9923199e-12          -0.0          -0.0 3.9939437e-12                        
          -0.0 1.9969895e-12 1.9969952e-12          -0.0                        
          -0.0          -0.0          -0.0          -0.0                        
          -0.0          -0.0          -0.0          -0.0                        
          -0.0          -0.0          -0.0          -0.0                        
          -0.0          -0.0          -0.0          -0.0                        
           0.0           0.0           0.0           0.0                        
           0.0           0.0           0.0           0.0                        
           0.0           0.0           0.0           0.0                        
           0.0           0.0           0.0           0.0                        
           0.0           0.0           0.0           0.0                        
           0.0           0.0           0.0           0.0                        
           0.0           0.0           0.0           0.0                        
           0.0           0.0           0.0           0.0                        
           0.0           0.0           0.0           0.0                        
           0.0           0.0           0.0           0.0                        
           0.0           0.0           0.0           0.0                        
           0.0           0.0           0.0           0.0                        
           0.0           0.0           0.0           0.0                        
           0.0           0.0           0.0           0.0                        
           0.0           0.0           0.0           0.0                        
           0.0           0.0           0.0           0.0                        
           0.0           0.0           0.0           0.0                        
           0.0           0.0           0.0           0.0                        
           0.0           0.0           0.0           0.0                        
           0.0           0.0           0.0           0.0                        
           0.0           0.0           0.0           0.0                        
           0.0           0.0           0.0           0.0                        
           0.0           0.0           0.0           0.0                        
           0.0           0.0           0.0           0.0                        
           0.0           0.0           0.0           0.0                        
           0.0           0.0           0.0           0.0                        
           0.0           0.0           0.0           0.0                        
           0.0           0.0           0.0           0.0                        
           0.0           0.0           0.0           0.0                        
           0.0           0.0           0.0           0.0                        
           0.0           0.0           0.0           0.0                        
           0.0           0.0           0.0           0.0                        
           0.0           0.0           0.0           0.0                        
           0.0           0.0           0.0           0.0                        
           0.0           0.0           0.0           0.0                        
           0.0           0.0           0.0           0.0                        
           0.0           0.0           0.0           0.0                        
           0.0           0.0           0.0           0.0                        
           0.0           0.0           0.0           0.0                        
           0.0           0.0           0.0           0.0                        
           0.0           0.0           0.0           0.0                        
           0.0           0.0           0.0           0.0                        
           0.0           0.0           0.0           0.0                        
           0.0           0.0           0.0           0.0                        
           0.0           0.0           0.0           0.0                        
           0.0           0.0           0.0           0.0                        
           0.0           0.0           0.0           0.0                        
           0.0           0.0           0.0           0.0                        
           0.0           0.0           0.0           0.0                        
           0.0           0.0           0.0           0.0                        
           0.0           0.0           0.0           0.0                        
           0.0           0.0           0.0           0.0                        
           0.0           0.0           0.0           0.0                        
           0.0           0.0           0.0           0.0                        
           0.0           0.0           0.0           0.0                        
           0.0           0.0           0.0           0.0                        
           0.0           0.0           0.0           0.0                        
           0.0           0.0           0.0           0.0                        
           0.0           0.0           0.0           0.0                        
           0.0           0.0           0.0           0.0                        
           0.0           0.0           0.0           0.0                        
           0.0           0.0           0.0           0.0                        
           0.0           0.0           0.0           0.0                        
           0.0           0.0           0.0           0.0                        
           0.0           0.0           0.0           0.0                        
           0.0           0.0           0.0           0.0                        
           0.0           0.0           0.0           0.0                        
           0.0           0.0           0.0           0.0                        
           0.0           0.0           0.0           0.0                        
           0.0           0.0           0.0           0.0                        
           0.0           0.0           0.0           0.0                        
           0.0           0.0           0.0           0.0                        
           0.0           0.0           0.0           0.0                        
           0.0           0.0           0.0           0.0                        
           0.0           0.0           0.0           0.0                        
           0.0           0.0           0.0           0.0                        
           0.0           0.0           0.0           0.0                        
           0.0           0.0           0.0           0.0                        
           0.0           0.0           0.0           0.0                        
           0.0           0.0           0.0           0.0                        
           0.0           0.0           0.0           0.0                        
           0.0           0.0           0.0           0.0                        
           0.0           0.0           0.0           0.0                        
           0.0           0.0           0.0           0.0                        
           0.0           0.0           0.0           0.0                        
           0.0           0.0           0.0           0.0                        
           0.0           0.0           0.0           0.0                        
           0.0           0.0           0.0           0.0                        
           0.0           0.0           0.0           0.0                        
           0.0           0.0           0.0           0.0                        
           0.0           0.0           0.0           0.0                        
           0.0           0.0           0.0           0.0                        
           0.0           0.0           0.0           0.0                        
           0.0           0.0           0.0           0.0                        
           0.0           0.0           0.0           0.0                        
           0.0           0.0           0.0           0.0                        
           0.0           0.0           0.0           0.0                        
           0.0           0.0           0.0           0.0                        
           0.0           0.0           0.0           0.0                        
           0.0           0.0           0.0           0.0                        