hymar gas                                                                       
ROCKS----1----*----2----*----3----*----4----*----5----*----6----*----7----*----8
PPINJ    2    2500.0      0.98   1.0e-18   1.0e-18   1.0e-18       2.0    9.2e22
              1.4e-5       2.0                                                            
    3            1.0       0.0                                                  
    8                                                                           
PPOUT    1    2500.0      0.16   1.0e-19   1.0e-19   5.0e-19       2.0     920.0
              1.4e-5       2.0                                                            
CLAY     1    2500.0      0.16   1.0e-19   1.0e-19   5.0e-19       2.0     920.0
              1.4e-5       2.0                                                            
STEEL    2    2500.0      0.16   1.0e-19   1.0e-19   5.0e-19       2.0     920.0
              1.4e-5       2.0                                                            
    3            0.0       1.0                                                  
    8                                                                           
GRD_B    2    2500.0      0.16   1.0e-19   1.0e-19   5.0e-19       2.0     920.0
              1.4e-5       2.0                                                            
    3            0.0       1.0                                                  
    8                                                                           
GRD_T    2    2500.0      0.16   1.0e-19   1.0e-19   5.0e-19       2.0     920.0
              1.4e-5       2.0                                                            
    3            0.0       1.0                                                  
    8                                                                           
BUFFR    1    2500.0      0.14   1.0e-13   1.0e-13   1.0e-13       2.0     920.0
              1.4e-5       2.0                                                            
PRESB    1    2500.0      0.16   1.0e-13   1.0e-13   1.0e-13       2.0     920.0
              1.4e-5       2.0                                                            

RPCAP----1----*----2----*----3----*----4----*----5----*----6----*----7----*----8
   11            0.5       0.0       0.0                                        
   11           1.67     1.8e7       0.0       0.0       0.0       0.0      0.01
MULTI----1----*----2----*----3----*----4----*----5----*----6----*----7----*----8
    2    2    2    6                                                            
START----1----*----2----*----3----*----4----*----5----*----6----*----7----*----8
PARAM----1-MOP: 123456789*123456789*1234----*----5----*----6----*----7----*----8
 9  9999    999912115     22    9   8                                           
 1.78126e7 3.74905e7       0.5       2.0                 9.8       8.0          
    1.0e-8                                                                      
           2000000.0                 0.0                19.0                    
INDOM----1----*----2----*----3----*----4----*----5----*----6----*----7----*----8
PPINJ                                                                           
           2000000.0                 1.0                19.0                    
PRESB                                                                           
           2000000.0                 0.0                19.0                    

TIMES----1----*----2----*----3----*----4----*----5----*----6----*----7----*----8
   20                                                                           
 1.78126e7 1.88483e7 1.98840e7 2.09196e7 2.19553e7 2.29910e7 2.40267e7 2.50623e7
 2.60980e7 2.71337e7 2.81694e7 2.92050e7 3.02407e7 3.12764e7 3.23121e7 3.33478e7
 3.43834e7 3.54191e7 3.64548e7 3.74905e7                                        
FOFT ----1----*----2----*----3----*----4----*----5----*----6----*----7----*----8
A2Z51                                                                           
A2Z53                                                                           
A2Z55                                                                           
A2Z57                                                                           
A2Z60                                                                           
A2Z62                                                                           
A2Z64                                                                           
A2Z66                                                                           
A2Z69                                                                           
A2Z71                                                                           
A1367                                                                           

GENER----1----*----2----*----3----*----4----*----5----*----6----*----7----*----8
A1367                       76     COM21                                        
    17812656.0    18068745.6    18324835.2    18581270.4                        
    18837705.6    19094227.2    19350576.0    19606924.8                        
    19862496.0    20118240.0    20373897.6    20629900.8                        
    20885904.0    21141561.6    21397564.8    21653568.0                        
    21908966.4    22164537.6    22420281.6    22676112.0                        
    22931942.4    23188032.0 2.344403520e7    23700297.6                        
    23956041.6    24211872.0 2.446917120e7    24727593.6                        
    24986016.0    25244179.2    25502860.8 2.577165120e7                        
    26027827.2 2.671660800e7    26973129.6 2.722965120e7                        
    27485827.2    27741398.4    27997142.4    28252886.4                        
    28508716.8    28764288.0    29020204.8 2.927620800e7                        
 2.953514879e7    29790806.4    30046636.8    30303590.4                        
    30563568.0    30821990.4    31080931.2    31340217.6                        
    31599331.2    31858531.2    32117385.6    32383497.6                        
    32641574.4 3.289982400e7 3.315859199e7    33417100.8                        
 3.367509119e7    33932390.4    34190899.2    34449926.4                        
    34708262.4    34966771.2    35225971.2    35484566.4                        
    35743593.6    36002102.4    36261043.2    36519552.0                        
    36778060.8    37036483.2    37295251.2    37490515.2                        
           0.0 6.1756014e-16 3.9480586e-16 5.4850257e-16                        
 1.0413604e-15 1.3540599e-15 2.2574551e-15 1.4705154e-15                        
 9.2840714e-16 9.3466619e-16 9.0022553e-16 1.1329092e-15                        
 1.3661828e-15 1.4547644e-15 1.0281550e-15 7.2405503e-16                        
 2.3116178e-15 2.8253145e-15 2.3413607e-15 2.6112375e-15                        
 2.6503513e-15 3.0743592e-15 3.9165576e-15 8.5624161e-15                        
 1.3891656e-14 8.2279797e-15 8.7130323e-15 6.8753875e-15                        
 6.9745145e-15 7.3582677e-15 6.6131925e-15 6.4359579e-15                        
 6.8106822e-15 7.9019848e-15 1.4370698e-15 2.7383904e-15                        
 4.2404660e-15 4.9317714e-15 5.3009283e-15 5.7125445e-15                        
 6.5085369e-15 6.2488942e-15 6.4124981e-15 6.3321591e-15                        
 6.1830348e-15 6.1215336e-15 6.4459548e-15 6.3710467e-15                        
 6.6048590e-15 6.4742328e-15 6.4303562e-15 6.4835332e-15                        
 6.3488315e-15 6.4239259e-15 6.3706516e-15 6.3924400e-15                        
 6.3743374e-15 6.4320680e-15 7.1152383e-16 9.2900512e-17                        
 -3.102906e-17 1.5556208e-17 1.5483418e-17 -1.545243e-17                        
 4.6481326e-17 3.0966837e-17 -4.632638e-17 1.5478245e-17                        
           0.0 -4.645025e-17 1.2366069e-16 -7.741709e-17                        
 -1.548341e-17 1.5488595e-17           0.0 1.2299041e-16                        
           0.0           0.0           0.0           0.0                        
           0.0           0.0           0.0           0.0                        
           0.0           0.0           0.0           0.0                        
           0.0           0.0           0.0           0.0                        
           0.0           0.0           0.0           0.0                        
           0.0           0.0           0.0           0.0                        
           0.0           0.0           0.0           0.0                        
           0.0           0.0           0.0           0.0                        
           0.0           0.0           0.0           0.0                        
           0.0           0.0           0.0           0.0                        
           0.0           0.0           0.0           0.0                        
           0.0           0.0           0.0           0.0                        
           0.0           0.0           0.0           0.0                        
           0.0           0.0           0.0           0.0                        
           0.0           0.0           0.0           0.0                        
           0.0           0.0           0.0           0.0                        
           0.0           0.0           0.0           0.0                        
           0.0           0.0           0.0           0.0                        
           0.0           0.0           0.0           0.0                        

OUTPU----1----*----2----*----3----*----4----*----5----*----6----*----7----*----8
2                                                                               
ABSOLUTE                0                                                       
COORDINATE                                                                      
ENDCY----1----*----2----*----3----*----4----*----5----*----6----*----7----*----8
