* Sample problem for ECO2N
ROCKS----1----*----2----*----3----*----4----*----5----*----6----*----7----*----8
LOWVZ    2     2260.       .10   0.2e-13   0.2e-13   0.2e-13       1.8    1500.0
    3.0e-9                 1.8       0.7
    3            0.3      0.05
    7         0.4570       0.0   5.03e-5     5.0e7      0.99
HIGVZ    2     2260.       .10   0.2e-14   0.2e-14   0.2e-14       1.8    1500.0
    3.0e-9                 1.8       0.7
    3            0.3      0.05
    7         0.4570       0.0   5.03e-5     5.0e7      0.99
FAULT    2     2260.       .10   0.1e-11   0.1e-11   0.1e-11       1.8    1500.0
    3.0e-9                 1.8       0.7
    3            0.3      0.05
    7         0.4570       0.0    1.1e-3     5.0e7      0.99
LATBC    2     2260.       .10   0.2e-13   0.2e-13   0.2e-13       1.8    1.0e55
    3.0e-9                 1.8       0.7
    3            0.3      0.05
    7         0.4570       0.0   5.03e-5     5.0e7      0.99
TOPBC    2     2260.       .10   0.2e-13   0.2e-13   0.2e-13       1.8    1.0e55
    3.0e-9                 1.8       0.7
    3            0.3      0.05
    7         0.4570       0.0   5.03e-5     5.0e7      0.99
BOTBC    2     2260.       .10   0.2e-14   0.2e-14   0.2e-14       1.8    1.0e55
    3.0e-9                 1.8       0.7
    3            0.3      0.05
    7         0.4570       0.0   5.03e-5     5.0e7      0.99
TOPFC    2     2260.       .10   0.1e-11   0.1e-11   0.1e-11       1.8    1.0e55
    3.0e-9                 1.8       0.7
    3            0.3      0.05
    7         0.4570       0.0   5.03e-5     5.0e7      0.99
BOTFC    2     2260.       .10   0.1e-11   0.1e-11   0.1e-11       1.8    1.0e55
    3.0e-9                 1.8       0.7
    3            0.3      0.05
    7         0.4570       0.0   5.03e-5     5.0e7      0.99

MULTI----1----*----2----*----3----*----4----*----5----*----6----*----7----*----8
    3    4    3    6
SELEC....2....3....4....5....6....7....8....9...10...11...12...13...14...15...16
    1                                            0    0    0    2    0    0    2
        .8        .8
SOLVR----1----*----2----*----3----*----4----*----5----*----6----*----7----*----8
5  Z1   O0    8.0e-1    1.0e-7
START----1----*----2----*----3----*----4----*----5----*----6----*----7----*----8
----*----1 MOP: 123456789*123456789*1234 ---*----5----*----6----*----7----*----8
PARAM----1----*----2----*----3----*----4----*----5----*----6----*----7----*----8
    9999    9999 000 00000000  4    3
        0. 0.3154e15      1.e7     1.e14                9.81        4.
     1.e-5       1.0       0.1        1.        1.     1.e-8
                1.e6              0.3e-2                 0.0                 50.
MOMOP----1----*----2----*----3----*----4----*----5----*----6----*----7----*----8
                       1                                                        
ENDCY----1----*----2----*----3----*----4----*----5----*----6----*----7----*----8