injection model                                                                 
ROCKS----1----*----2----*----3----*----4----*----5----*----6----*----7----*----8
INJEC    1    2500.0      0.99   5.0e-19   5.0e-19   1.0e-19       2.0    9.2e22
   1.0e-99    1.4e-5       2.0                                                            
CLAY     1    2500.0      0.14   7.3e-20   7.3e-20   7.3e-20       2.0     920.0
   1.0e-99    1.4e-5       2.0       0.8                                                  
FAULT    1    2500.0      0.14   4.0e-19   4.0e-19   4.0e-19       2.0     920.0
   1.0e-99    1.4e-5       2.0       0.8                                                  
BNDTO    1    2500.0      0.14   7.3e-20   7.3e-20   7.3e-20       2.0     920.0
   1.0e-99    1.4e-5       2.0                                                            
BNDBO    1    2500.0      0.14   7.3e-20   7.3e-20   7.3e-20       2.0     920.0
   1.0e-99    1.4e-5       2.0                                                            

RPCAP----1----*----2----*----3----*----4----*----5----*----6----*----7----*----8
   11            0.5       0.0       0.0                                        
   11           1.67     1.8e7       0.0       0.0       0.0       0.0      0.01
MULTI----1----*----2----*----3----*----4----*----5----*----6----*----7----*----8
    3    3    3    6                                                            
START----1----*----2----*----3----*----4----*----5----*----6----*----7----*----8
PARAM----1-MOP: 123456789*123456789*1234----*----5----*----6----*----7----*----8
    9999    999912115     02    9   8                                           
       0.0 2.90526e5    3600.0  172800.0                 9.8       4.0          
    1.0e-7                                                                      
            450000.0            0.017203                 0.0                16.5
INDOM----1----*----2----*----3----*----4----*----5----*----6----*----7----*----8
BNDTO                                                                           
   675416.0976180864            0.017203                 0.0                16.5
BNDBO                                                                           
   675416.0976180864            0.017203                 0.0                16.5

TIMES----1----*----2----*----3----*----4----*----5----*----6----*----7----*----8
  100                                                                           
       0.0 2.93460e3 5.86921e3 8.80382e3 1.17384e4 1.46730e4 1.76076e4 2.05422e4
 2.34768e4 2.64114e4 2.93460e4 3.22806e4 3.52152e4 3.81498e4 4.10845e4 4.40191e4
 4.69537e4 4.98883e4 5.28229e4 5.57575e4 5.86921e4 6.16267e4 6.45613e4 6.74959e4
 7.04305e4 7.33651e4 7.62997e4 7.92343e4 8.21690e4 8.51036e4 8.80382e4 9.09728e4
 9.39074e4 9.68420e4 9.97766e4 1.02711e5 1.05645e5 1.08580e5 1.11515e5 1.14449e5
 1.17384e5 1.20318e5 1.23253e5 1.26188e5 1.29122e5 1.32057e5 1.34991e5 1.37926e5
 1.40861e5 1.43795e5 1.46730e5 1.49664e5 1.52599e5 1.55534e5 1.58468e5 1.61403e5
 1.64338e5 1.67272e5 1.70207e5 1.73141e5 1.76076e5 1.79011e5 1.81945e5 1.84880e5
 1.87814e5 1.90749e5 1.93684e5 1.96618e5 1.99553e5 2.02487e5 2.05422e5 2.08357e5
 2.11291e5 2.14226e5 2.17160e5 2.20095e5 2.23030e5 2.25964e5 2.28899e5 2.31833e5
 2.34768e5 2.37703e5 2.40637e5 2.43572e5 2.46507e5 2.49441e5 2.52376e5 2.55310e5
 2.58245e5 2.61180e5 2.64114e5 2.67049e5 2.69983e5 2.72918e5 2.75853e5 2.78787e5
 2.81722e5 2.84656e5 2.87591e5 2.90526e5                                        
GENER----1----*----2----*----3----*----4----*----5----*----6----*----7----*----8
A8293                       82     COM11                                        
 1.237397691e3 4.275811944e3 7.702484325e3 1.161991254e4                        
 1.507493449e4 1.833680427e4 2.277560789e4 2.587524527e4                        
 29475.3341875 3.307542866e4 3.667553126e4 4.027512839e4                        
 4.387473076e4 4.747482292e4 5.107492696e4   54675.01281                        
 5.827509959e4 6.187519711e4 6.547527534e4 6.907533315e4                        
  72675.427585 7.627549336e4 7.987508715e4 8.347467858e4                        
 87074.7495825 9.073853879e4 9.427509108e4 9.787537630e4                        
 1.014750847e5 1.050746975e5 1.086747802e5 1.122748703e5                        
 1.158749158e5 119475.013985 1.230751115e5 1.266751967e5                        
 1.302752807e5 1.338753686e5 1.374754555e5 1.410750422e5                        
 1.446746395e5 1.482747241e5 1.518748190e5 1.554749079e5                        
 1.590749877e5 1.626750761e5 1.662751590e5 1.698751053e5                        
 1.734754045e5 1.770751735e5 180674.893775 1.842751298e5                        
 1.878749039e5 1.914751659e5 1.950758721e5 1.986750150e5                        
 2.022747697e5 2.058750182e5 2.094751264e5 2.130749924e5                        
 2.166747717e5 2.202750409e5 2.238753033e5 2.274750508e5                        
 2.310748051e5 2.346750583e5 2.382753136e5 2.418750932e5                        
 2.454748524e5 2.490751034e5 2.526753554e5 2.556710528e5                        
 2.605125991e5  263475.15975 2.670753717e5 2.706751397e5                        
 2.742748721e5 2.778751727e5 2.814750140e5 285074.727855                        
 2.886749688e5    290526.116                                                    
 7.53855002e-6 7.47884524e-6 7.51197200e-6 7.49684890e-6                        
 7.49962457e-6 7.41787584e-6 7.71194573e-6 6.88728838e-6                        
 -2.8443191e-5 5.99258794e-6 5.78193644e-6 5.79078852e-6                        
 5.76526080e-6 5.76962973e-6 5.73828766e-6 5.74496864e-6                        
 5.72780555e-6 5.72553623e-6 5.72048529e-6 5.71949280e-6                        
 5.71365012e-6 5.71130823e-6 5.70616414e-6 5.72807255e-6                        
 5.71564006e-6 5.72799028e-6 9.17819360e-5 2.92269718e-4                        
 2.92440581e-4 2.92774460e-4 2.57711404e-4 5.74327170e-6                        
 5.74564942e-6 5.77003555e-6 5.75759735e-6 5.73981819e-6                        
 5.73998342e-6 5.73624984e-6 5.74935198e-6 5.74111284e-6                        
 5.74916780e-6 5.74010011e-6 5.74201603e-6 5.72879680e-6                        
 5.72449864e-6 5.73237325e-6 5.73821513e-6 5.74164762e-6                        
 5.74929950e-6 5.75426071e-6 5.73695725e-6 7.79890359e-6                        
 3.04613365e-4 2.90034400e-4 2.88009029e-4 2.88006872e-4                        
 2.89848737e-4 8.64850242e-5 5.75642281e-6 5.76879391e-6                        
 5.76713297e-6 5.74591648e-6 5.74244081e-6 5.73425010e-6                        
 5.74013000e-6 5.74142563e-6 5.72948239e-6 5.74234437e-6                        
 5.74343494e-6 5.73370880e-6 5.75027486e-6 5.74137891e-6                        
 2.79016202e-5 6.73358236e-5 1.83027554e-4 2.64731164e-4                        
 5.66344569e-6 5.67276831e-6 5.67852117e-6 6.29666183e-5                        
 1.20892339e-6 -2.2206581e-4                                                    
           0.0           0.0           0.0           0.0                        
           0.0           0.0           0.0           0.0                        
           0.0           0.0           0.0           0.0                        
           0.0           0.0           0.0           0.0                        
           0.0           0.0           0.0           0.0                        
           0.0           0.0           0.0           0.0                        
           0.0           0.0           0.0           0.0                        
           0.0           0.0           0.0           0.0                        
           0.0           0.0           0.0           0.0                        
           0.0           0.0           0.0           0.0                        
           0.0           0.0           0.0           0.0                        
           0.0           0.0           0.0           0.0                        
           0.0           0.0           0.0           0.0                        
           0.0           0.0           0.0           0.0                        
           0.0           0.0           0.0           0.0                        
           0.0           0.0           0.0           0.0                        
           0.0           0.0           0.0           0.0                        
           0.0           0.0           0.0           0.0                        
           0.0           0.0           0.0           0.0                        
           0.0           0.0           0.0           0.0                        
           0.0           0.0                                                    
A8294                       82     COM11                                        
 1.237397691e3 4.275811944e3 7.702484325e3 1.161991254e4                        
 1.507493449e4 1.833680427e4 2.277560789e4 2.587524527e4                        
 29475.3341875 3.307542866e4 3.667553126e4 4.027512839e4                        
 4.387473076e4 4.747482292e4 5.107492696e4   54675.01281                        
 5.827509959e4 6.187519711e4 6.547527534e4 6.907533315e4                        
  72675.427585 7.627549336e4 7.987508715e4 8.347467858e4                        
 87074.7495825 9.073853879e4 9.427509108e4 9.787537630e4                        
 1.014750847e5 1.050746975e5 1.086747802e5 1.122748703e5                        
 1.158749158e5 119475.013985 1.230751115e5 1.266751967e5                        
 1.302752807e5 1.338753686e5 1.374754555e5 1.410750422e5                        
 1.446746395e5 1.482747241e5 1.518748190e5 1.554749079e5                        
 1.590749877e5 1.626750761e5 1.662751590e5 1.698751053e5                        
 1.734754045e5 1.770751735e5 180674.893775 1.842751298e5                        
 1.878749039e5 1.914751659e5 1.950758721e5 1.986750150e5                        
 2.022747697e5 2.058750182e5 2.094751264e5 2.130749924e5                        
 2.166747717e5 2.202750409e5 2.238753033e5 2.274750508e5                        
 2.310748051e5 2.346750583e5 2.382753136e5 2.418750932e5                        
 2.454748524e5 2.490751034e5 2.526753554e5 2.556710528e5                        
 2.605125991e5  263475.15975 2.670753717e5 2.706751397e5                        
 2.742748721e5 2.778751727e5 2.814750140e5 285074.727855                        
 2.886749688e5    290526.116                                                    
 1.36722447e-5 1.35639615e-5 1.36240416e-5 1.35966137e-5                        
 1.36016478e-5 1.34533847e-5 1.39867228e-5 1.24910880e-5                        
 -5.1585819e-5 1.08684201e-5 1.04863733e-5 1.05024278e-5                        
 1.04561297e-5 1.04640533e-5 1.04072100e-5 1.04193269e-5                        
 1.03881992e-5 1.03840834e-5 1.03749228e-5 1.03731228e-5                        
 1.03625263e-5 1.03582789e-5 1.03489494e-5 1.03886834e-5                        
 1.03661353e-5 1.03885342e-5 1.66459742e-4 5.30073172e-4                        
 5.30383057e-4 5.30988593e-4 4.67396699e-4 1.04162492e-5                        
 1.04205616e-5 1.04647893e-5 1.04422309e-5 1.04099858e-5                        
 1.04102855e-5 1.04035141e-5 1.04272767e-5 1.04123339e-5                        
 1.04269427e-5 1.04104971e-5 1.04139719e-5 1.03899969e-5                        
 1.03822016e-5 1.03964833e-5 1.04070784e-5 1.04133038e-5                        
 1.04271815e-5 1.04361794e-5 1.04047971e-5 1.41444334e-5                        
 5.52460152e-4 5.26019102e-4 5.22345800e-4 5.22341887e-4                        
 5.25682375e-4 1.56853030e-4 1.04401007e-5 1.04625375e-5                        
 1.04595251e-5 1.04210459e-5 1.04147423e-5 1.03998873e-5                        
 1.04105513e-5 1.04129011e-5 1.03912404e-5 1.04145674e-5                        
 1.04165453e-5 1.03989056e-5 1.04289505e-5 1.04128164e-5                        
 5.06036014e-5 1.22123201e-4 3.31946796e-4 4.80128043e-4                        
 1.02714733e-5 1.02883812e-5 1.02988149e-5 1.14199019e-4                        
 2.19255646e-6 -4.0274828e-4                                                    
           0.0           0.0           0.0           0.0                        
           0.0           0.0           0.0           0.0                        
           0.0           0.0           0.0           0.0                        
           0.0           0.0           0.0           0.0                        
           0.0           0.0           0.0           0.0                        
           0.0           0.0           0.0           0.0                        
           0.0           0.0           0.0           0.0                        
           0.0           0.0           0.0           0.0                        
           0.0           0.0           0.0           0.0                        
           0.0           0.0           0.0           0.0                        
           0.0           0.0           0.0           0.0                        
           0.0           0.0           0.0           0.0                        
           0.0           0.0           0.0           0.0                        
           0.0           0.0           0.0           0.0                        
           0.0           0.0           0.0           0.0                        
           0.0           0.0           0.0           0.0                        
           0.0           0.0           0.0           0.0                        
           0.0           0.0           0.0           0.0                        
           0.0           0.0           0.0           0.0                        
           0.0           0.0           0.0           0.0                        
           0.0           0.0                                                    
A8295                       82     COM11                                        
 1.237397691e3 4.275811944e3 7.702484325e3 1.161991254e4                        
 1.507493449e4 1.833680427e4 2.277560789e4 2.587524527e4                        
 29475.3341875 3.307542866e4 3.667553126e4 4.027512839e4                        
 4.387473076e4 4.747482292e4 5.107492696e4   54675.01281                        
 5.827509959e4 6.187519711e4 6.547527534e4 6.907533315e4                        
  72675.427585 7.627549336e4 7.987508715e4 8.347467858e4                        
 87074.7495825 9.073853879e4 9.427509108e4 9.787537630e4                        
 1.014750847e5 1.050746975e5 1.086747802e5 1.122748703e5                        
 1.158749158e5 119475.013985 1.230751115e5 1.266751967e5                        
 1.302752807e5 1.338753686e5 1.374754555e5 1.410750422e5                        
 1.446746395e5 1.482747241e5 1.518748190e5 1.554749079e5                        
 1.590749877e5 1.626750761e5 1.662751590e5 1.698751053e5                        
 1.734754045e5 1.770751735e5 180674.893775 1.842751298e5                        
 1.878749039e5 1.914751659e5 1.950758721e5 1.986750150e5                        
 2.022747697e5 2.058750182e5 2.094751264e5 2.130749924e5                        
 2.166747717e5 2.202750409e5 2.238753033e5 2.274750508e5                        
 2.310748051e5 2.346750583e5 2.382753136e5 2.418750932e5                        
 2.454748524e5 2.490751034e5 2.526753554e5 2.556710528e5                        
 2.605125991e5  263475.15975 2.670753717e5 2.706751397e5                        
 2.742748721e5 2.778751727e5 2.814750140e5 285074.727855                        
 2.886749688e5    290526.116                                                    
 1.48701076e-5 1.47523374e-5 1.48176813e-5 1.47878503e-5                        
 1.47933255e-5 1.46320726e-5 1.52121379e-5 1.35854665e-5                        
 -5.6105394e-5 1.18206322e-5 1.14051132e-5 1.14225743e-5                        
 1.13722198e-5 1.13808377e-5 1.13190142e-5 1.13321927e-5                        
 1.12983378e-5 1.12938614e-5 1.12838983e-5 1.12819405e-5                        
 1.12704156e-5 1.12657961e-5 1.12556492e-5 1.12988644e-5                        
 1.12743408e-5 1.12987022e-5 1.81043736e-4 5.76514336e-4                        
 5.76851371e-4 5.77509960e-4 5.08346606e-4 1.13288454e-5                        
 1.13335356e-5 1.13816382e-5 1.13571034e-5 1.13220332e-5                        
 1.13223591e-5 1.13149945e-5 1.13408390e-5 1.13245870e-5                        
 1.13404757e-5 1.13225893e-5 1.13263685e-5 1.13002931e-5                        
 1.12918148e-5 1.13073478e-5 1.13188711e-5 1.13256418e-5                        
 1.13407355e-5 1.13505217e-5 1.13163899e-5 1.53836659e-5                        
 6.00862700e-4 5.72105078e-4 5.68109947e-4 5.68105691e-4                        
 5.71738849e-4 1.70595354e-4 1.13547865e-5 1.13791891e-5                        
 1.13759128e-5 1.13340623e-5 1.13272065e-5 1.13110499e-5                        
 1.13226483e-5 1.13252040e-5 1.13016454e-5 1.13270162e-5                        
 1.13291674e-5 1.13099822e-5 1.13426594e-5 1.13251118e-5                        
 5.50371216e-5 1.32822749e-4 3.61029564e-4 5.22193377e-4                        
 1.11713853e-5 1.11897745e-5 1.12011223e-5 1.24204308e-4                        
 2.38465234e-6 -4.3803416e-4                                                    
           0.0           0.0           0.0           0.0                        
           0.0           0.0           0.0           0.0                        
           0.0           0.0           0.0           0.0                        
           0.0           0.0           0.0           0.0                        
           0.0           0.0           0.0           0.0                        
           0.0           0.0           0.0           0.0                        
           0.0           0.0           0.0           0.0                        
           0.0           0.0           0.0           0.0                        
           0.0           0.0           0.0           0.0                        
           0.0           0.0           0.0           0.0                        
           0.0           0.0           0.0           0.0                        
           0.0           0.0           0.0           0.0                        
           0.0           0.0           0.0           0.0                        
           0.0           0.0           0.0           0.0                        
           0.0           0.0           0.0           0.0                        
           0.0           0.0           0.0           0.0                        
           0.0           0.0           0.0           0.0                        
           0.0           0.0           0.0           0.0                        
           0.0           0.0           0.0           0.0                        
           0.0           0.0           0.0           0.0                        
           0.0           0.0                                                    
A8296                       82     COM11                                        
 1.237397691e3 4.275811944e3 7.702484325e3 1.161991254e4                        
 1.507493449e4 1.833680427e4 2.277560789e4 2.587524527e4                        
 29475.3341875 3.307542866e4 3.667553126e4 4.027512839e4                        
 4.387473076e4 4.747482292e4 5.107492696e4   54675.01281                        
 5.827509959e4 6.187519711e4 6.547527534e4 6.907533315e4                        
  72675.427585 7.627549336e4 7.987508715e4 8.347467858e4                        
 87074.7495825 9.073853879e4 9.427509108e4 9.787537630e4                        
 1.014750847e5 1.050746975e5 1.086747802e5 1.122748703e5                        
 1.158749158e5 119475.013985 1.230751115e5 1.266751967e5                        
 1.302752807e5 1.338753686e5 1.374754555e5 1.410750422e5                        
 1.446746395e5 1.482747241e5 1.518748190e5 1.554749079e5                        
 1.590749877e5 1.626750761e5 1.662751590e5 1.698751053e5                        
 1.734754045e5 1.770751735e5 180674.893775 1.842751298e5                        
 1.878749039e5 1.914751659e5 1.950758721e5 1.986750150e5                        
 2.022747697e5 2.058750182e5 2.094751264e5 2.130749924e5                        
 2.166747717e5 2.202750409e5 2.238753033e5 2.274750508e5                        
 2.310748051e5 2.346750583e5 2.382753136e5 2.418750932e5                        
 2.454748524e5 2.490751034e5 2.526753554e5 2.556710528e5                        
 2.605125991e5  263475.15975 2.670753717e5 2.706751397e5                        
 2.742748721e5 2.778751727e5 2.814750140e5 285074.727855                        
 2.886749688e5    290526.116                                                    
 8.06612047e-6 8.00223737e-6 8.03768244e-6 8.02150098e-6                        
 8.02447090e-6 7.93700114e-6 8.25165093e-6 7.36928157e-6                        
 -3.0433731e-5 6.41196730e-6 6.18657377e-6 6.19604535e-6                        
 6.16873113e-6 6.17340580e-6 6.13987032e-6 6.14701886e-6                        
 6.12865464e-6 6.12622651e-6 6.12082209e-6 6.11976014e-6                        
 6.11350858e-6 6.11100279e-6 6.10549870e-6 6.12894033e-6                        
 6.11563777e-6 6.12885230e-6 9.82051124e-5 3.12723634e-4                        
 3.12906454e-4 3.13263699e-4 2.75746825e-4 6.14520316e-6                        
 6.14774727e-6 6.17384002e-6 6.16053136e-6 6.14150797e-6                        
 6.14168476e-6 6.13768989e-6 6.15170895e-6 6.14289322e-6                        
 6.15151188e-6 6.14180962e-6 6.14385961e-6 6.12971526e-6                        
 6.12511631e-6 6.13354200e-6 6.13979271e-6 6.14346542e-6                        
 6.15165281e-6 6.15696121e-6 6.13844681e-6 8.34469437e-6                        
 3.25931127e-4 3.10331882e-4 3.08164769e-4 3.08162460e-4                        
 3.10133225e-4 9.25375068e-5 6.15927462e-6 6.17251149e-6                        
 6.17073431e-6 6.14803302e-6 6.14431413e-6 6.13555020e-6                        
 6.14184159e-6 6.14322790e-6 6.13044883e-6 6.14421093e-6                        
 6.14537783e-6 6.13497102e-6 6.15269643e-6 6.14317791e-6                        
 2.98542596e-5 7.20481874e-5 1.95836374e-4 2.83257848e-4                        
 6.05979069e-6 6.06976573e-6 6.07592120e-6 6.73732120e-5                        
 1.29352749e-6 -2.3760664e-4                                                    
           0.0           0.0           0.0           0.0                        
           0.0           0.0           0.0           0.0                        
           0.0           0.0           0.0           0.0                        
           0.0           0.0           0.0           0.0                        
           0.0           0.0           0.0           0.0                        
           0.0           0.0           0.0           0.0                        
           0.0           0.0           0.0           0.0                        
           0.0           0.0           0.0           0.0                        
           0.0           0.0           0.0           0.0                        
           0.0           0.0           0.0           0.0                        
           0.0           0.0           0.0           0.0                        
           0.0           0.0           0.0           0.0                        
           0.0           0.0           0.0           0.0                        
           0.0           0.0           0.0           0.0                        
           0.0           0.0           0.0           0.0                        
           0.0           0.0           0.0           0.0                        
           0.0           0.0           0.0           0.0                        
           0.0           0.0           0.0           0.0                        
           0.0           0.0           0.0           0.0                        
           0.0           0.0           0.0           0.0                        
           0.0           0.0                                                    
A8297                       82     COM11                                        
 1.237397691e3 4.275811944e3 7.702484325e3 1.161991254e4                        
 1.507493449e4 1.833680427e4 2.277560789e4 2.587524527e4                        
 29475.3341875 3.307542866e4 3.667553126e4 4.027512839e4                        
 4.387473076e4 4.747482292e4 5.107492696e4   54675.01281                        
 5.827509959e4 6.187519711e4 6.547527534e4 6.907533315e4                        
  72675.427585 7.627549336e4 7.987508715e4 8.347467858e4                        
 87074.7495825 9.073853879e4 9.427509108e4 9.787537630e4                        
 1.014750847e5 1.050746975e5 1.086747802e5 1.122748703e5                        
 1.158749158e5 119475.013985 1.230751115e5 1.266751967e5                        
 1.302752807e5 1.338753686e5 1.374754555e5 1.410750422e5                        
 1.446746395e5 1.482747241e5 1.518748190e5 1.554749079e5                        
 1.590749877e5 1.626750761e5 1.662751590e5 1.698751053e5                        
 1.734754045e5 1.770751735e5 180674.893775 1.842751298e5                        
 1.878749039e5 1.914751659e5 1.950758721e5 1.986750150e5                        
 2.022747697e5 2.058750182e5 2.094751264e5 2.130749924e5                        
 2.166747717e5 2.202750409e5 2.238753033e5 2.274750508e5                        
 2.310748051e5 2.346750583e5 2.382753136e5 2.418750932e5                        
 2.454748524e5 2.490751034e5 2.526753554e5 2.556710528e5                        
 2.605125991e5  263475.15975 2.670753717e5 2.706751397e5                        
 2.742748721e5 2.778751727e5 2.814750140e5 285074.727855                        
 2.886749688e5    290526.116                                                    
 1.42402895e-5 1.41275074e-5 1.41900837e-5 1.41615163e-5                        
 1.41667595e-5 1.40123365e-5 1.45678333e-5 1.30100590e-5                        
 -5.3729070e-5 1.13199736e-5 1.09220538e-5 1.09387753e-5                        
 1.08905536e-5 1.08988065e-5 1.08396014e-5 1.08522218e-5                        
 1.08198008e-5 1.08155140e-5 1.08059728e-5 1.08040980e-5                        
 1.07930612e-5 1.07886374e-5 1.07789202e-5 1.08203051e-5                        
 1.07968202e-5 1.08201497e-5 1.73375694e-4 5.52096279e-4                        
 5.52419039e-4 5.53049734e-4 4.86815769e-4 1.08490162e-5                        
 1.08535077e-5 1.08995730e-5 1.08760773e-5 1.08424926e-5                        
 1.08428047e-5 1.08357520e-5 1.08605019e-5 1.08449382e-5                        
 1.08601540e-5 1.08430251e-5 1.08466443e-5 1.08216732e-5                        
 1.08135540e-5 1.08284291e-5 1.08394644e-5 1.08459484e-5                        
 1.08604027e-5 1.08697744e-5 1.08370883e-5 1.47320963e-5                        
 5.75413377e-4 5.47873773e-4 5.44047855e-4 5.44043780e-4                        
 5.47523056e-4 1.63369850e-4 1.08738586e-5 1.08972276e-5                        
 1.08940901e-5 1.08540122e-5 1.08474467e-5 1.08319745e-5                        
 1.08430816e-5 1.08455290e-5 1.08229683e-5 1.08472645e-5                        
 1.08493246e-5 1.08309520e-5 1.08622452e-5 1.08454408e-5                        
 5.27060442e-5 1.27197090e-4 3.45738287e-4 5.00076065e-4                        
 1.06982253e-5 1.07158356e-5 1.07267028e-5 1.18943679e-4                        
 2.28365125e-6 -4.1948139e-4                                                    
           0.0           0.0           0.0           0.0                        
           0.0           0.0           0.0           0.0                        
           0.0           0.0           0.0           0.0                        
           0.0           0.0           0.0           0.0                        
           0.0           0.0           0.0           0.0                        
           0.0           0.0           0.0           0.0                        
           0.0           0.0           0.0           0.0                        
           0.0           0.0           0.0           0.0                        
           0.0           0.0           0.0           0.0                        
           0.0           0.0           0.0           0.0                        
           0.0           0.0           0.0           0.0                        
           0.0           0.0           0.0           0.0                        
           0.0           0.0           0.0           0.0                        
           0.0           0.0           0.0           0.0                        
           0.0           0.0           0.0           0.0                        
           0.0           0.0           0.0           0.0                        
           0.0           0.0           0.0           0.0                        
           0.0           0.0           0.0           0.0                        
           0.0           0.0           0.0           0.0                        
           0.0           0.0           0.0           0.0                        
           0.0           0.0                                                    
A8298                       82     COM11                                        
 1.237397691e3 4.275811944e3 7.702484325e3 1.161991254e4                        
 1.507493449e4 1.833680427e4 2.277560789e4 2.587524527e4                        
 29475.3341875 3.307542866e4 3.667553126e4 4.027512839e4                        
 4.387473076e4 4.747482292e4 5.107492696e4   54675.01281                        