injection model                                                                 
ROCKS----1----*----2----*----3----*----4----*----5----*----6----*----7----*----8
CLAY     1    2500.0      0.12   3.0e-18   3.0e-18   3.0e-18       2.0     920.0
    5.0e-9    1.4e-5       2.0                                                            
EDZ      1    2500.0      0.14   1.0e-14   1.0e-14   1.0e-14       2.0     920.0
    5.0e-9    1.4e-5       2.0                                                            
FAULT    1    2500.0      0.14   2.0e-14   2.0e-14   2.0e-14       2.0     920.0
    5.0e-9    1.4e-5       2.0                                                            
BNDTO    1    2500.0      0.12   3.0e-18   3.0e-18   3.0e-18       2.0     920.0
    5.0e-9    1.4e-5       2.0                                                            
BNDBO    1    2500.0      0.12   3.0e-18   3.0e-18   3.0e-18       2.0     920.0
    5.0e-9    1.4e-5       2.0                                                            

RPCAP----1----*----2----*----3----*----4----*----5----*----6----*----7----*----8
   11            0.5       0.0       0.0                                        
   11           1.67     1.8e7       0.0       0.0       0.0       0.0      0.01
MULTI----1----*----2----*----3----*----4----*----5----*----6----*----7----*----8
    3    3    3    6                                                            
START----1----*----2----*----3----*----4----*----5----*----6----*----7----*----8
PARAM----1-MOP: 123456789*123456789*1234----*----5----*----6----*----7----*----8
 9  9999    999912115     22    9   8                                           
   94878.0  112978.0       1.0      10.0                 9.8       8.0          
    1.0e-8                                                                      
            450000.0            0.017203                 0.0                16.5
INDOM----1----*----2----*----3----*----4----*----5----*----6----*----7----*----8
BNDTO                                                                           
            249447.5            0.017203                 0.0                16.5
BNDBO                                                                           
      643521.9636711            0.017203                 0.0                16.5

FOFT ----1----*----2----*----3----*----4----*----5----*----6----*----7----*----8
A9M 1                                                                           
A3W20                                                                           

ENDCY----1----*----2----*----3----*----4----*----5----*----6----*----7----*----8
