injection model                                                                 
ROCKS----1----*----2----*----3----*----4----*----5----*----6----*----7----*----8
INJEC    1    2500.0     0.999   6.0e-17   1.0e-14   6.0e-17       2.0    9.2e22
    2.0e-9    1.4e-5       2.0                                                            
CLAY     1    2500.0      0.12   1.0e-18   1.0e-18   1.0e-18       2.0     920.0
    2.0e-9    1.4e-5       2.0                                                            
FAULT    1    2500.0      0.12   6.0e-17   6.0e-17   6.0e-17       2.0     920.0
    8.0e-9    1.4e-5       2.0                                                            
BNDTO    1    2500.0      0.12   1.0e-18   1.0e-18   1.0e-18       2.0     920.0
    2.0e-9    1.4e-5       2.0                                                            
BNDBO    1    2500.0      0.12   1.0e-18   1.0e-18   1.0e-18       2.0     920.0
    2.0e-9    1.4e-5       2.0                                                            

RPCAP----1----*----2----*----3----*----4----*----5----*----6----*----7----*----8
   11            0.5       0.0       0.0                                        
   11           1.67     1.8e7       0.0       0.0       0.0       0.0      0.01
MULTI----1----*----2----*----3----*----4----*----5----*----6----*----7----*----8
    3    3    3    6                                                            
START----1----*----2----*----3----*----4----*----5----*----6----*----7----*----8
PARAM----1-MOP: 123456789*123456789*1234----*----5----*----6----*----7----*----8
    9999    999912115     02    9   8                                           
       0.0  168000.0       1.0     300.0                 9.8       4.0          
    1.0e-8                                                                      
            450000.0            0.017203                 0.0                16.5
INDOM----1----*----2----*----3----*----4----*----5----*----6----*----7----*----8
BNDTO                                                                           
            493430.1            0.017203                 0.0                16.5
BNDBO                                                                           
            694535.1            0.017203                 0.0                16.5

FOFT ----1----*----2----*----3----*----4----*----5----*----6----*----7----*----8
A6F 4                                                                           
A6F34                                                                           
A6F64                                                                           
A6F94                                                                           
A6G24                                                                           
A6G54                                                                           
A6G84                                                                           
A6H14                                                                           
A6H44                                                                           
A6H74                                                                           
A6I 4                                                                           

GENER----1----*----2----*----3----*----4----*----5----*----6----*----7----*----8
A6F 4                      167     COM11                                        
           0.0        6000.0       12000.0       18000.0                        
       24000.0       30000.0     32478.561     32479.561                        
     32480.561     32481.561     32512.561     32513.561                        
     32514.561     32515.561     32516.561     32520.561                        
     32521.561     32522.561     32523.561     32524.561                        
     32525.561     32526.561     32527.561     32528.561                        
     32529.561     32530.561     32531.561     32532.561                        
     32533.561     32534.561     32535.561     32536.561                        
     32537.561     32545.561     32546.561     32547.561                        
     32548.561     32551.561     32552.561     32553.561                        
     32554.561     32590.561     32591.561     32592.561                        
     32593.561     32594.561     32595.561     32620.568                        
     32621.568     32622.568     32623.568       36000.0                        
     37428.923     37429.923     37430.923     37431.923                        
     37440.923     37441.923     37442.923     37443.923                        
     37452.923     37453.923     37454.923     37455.923                        
       42000.0     47565.226     47566.226     47567.226                        
     47568.226     47569.226       48000.0       54000.0                        
       60000.0       66000.0       72000.0       78000.0                        
       84000.0       90000.0       96000.0      102000.0                        
      108000.0      114000.0      120000.0    123568.675                        
    123569.675    123570.675    123571.675    123572.675                        
    123573.675    123574.675    123575.675    123581.675                        
    123582.675    123583.675    123584.675    123585.675                        
    123588.675    123589.675    123590.675    123591.675                        
    123601.675    123602.675    123603.675    123604.675                        
    123605.675    123647.675    123648.675    123649.675                        
    123650.675    123656.675    123657.675    123658.675                        
    123659.675    123661.675    123662.675    123663.675                        
    123664.675    123673.675    123674.675    123675.675                        
    123676.675    123707.675    123708.675    123709.675                        
    123710.675     124117.72     124118.72     124119.72                        
     124120.72     124121.72     124122.72     124123.72                        
     124124.72     124125.72     124130.72     124131.72                        
     124132.72     124133.72      126000.0     129340.05                        
     129341.05     129342.05     129343.05      132000.0                        
    134378.825    134379.825    134380.825    134381.825                        
      138000.0    139715.161    139716.161    139717.161                        
    139718.161    139719.161    141966.328    141967.328                        
    141968.328    141969.328    142623.372    142624.372                        
    142625.372    142626.372      144000.0      150000.0                        
      156000.0      162000.0      168000.0                                      
 1.01181774e-5 1.01230083e-5 1.01005298e-5 1.01236985e-5                        
 1.01308955e-5 1.01404587e-5 1.01239942e-5 1.01391771e-5                        
 1.29316359e-5 1.08262891e-4 1.09042343e-4 1.08379819e-4                        
 1.09410477e-4 2.17640736e-4 1.20720507e-4 1.09239917e-4                        
 9.97824890e-5 9.69972272e-5 1.83594507e-4 1.48932682e-4                        
 1.94552275e-4 2.08133520e-4 2.08531231e-4 2.21296447e-4                        
 2.86169060e-4 3.47888277e-4 4.17755747e-4 4.77445491e-4                        
 4.81374001e-4 5.14632793e-4 5.24278824e-4 5.61440689e-4                        
 5.74633391e-4 5.85891464e-4 5.86050588e-4 5.86249543e-4                        
 5.49050312e-4 5.53393786e-4 5.52226581e-4 5.55559903e-4                        
 5.30694755e-4 5.39803471e-4 5.39348282e-4 5.43783445e-4                        
 5.57761612e-4 5.57749781e-4 5.39294649e-4 5.49142296e-4                        
 5.49073184e-4 5.44500982e-4 5.30683713e-4 5.19648157e-4                        
 5.22066862e-4 5.21968272e-4 5.22033341e-4 4.88126124e-4                        
 4.94952682e-4 4.94952682e-4 4.94952682e-4 5.12274327e-4                        
 5.14456514e-4 5.12338607e-4 5.12306763e-4 5.30611250e-4                        
 5.24243233e-4 5.22014511e-4 5.22041130e-4 5.22100185e-4                        
 2.94915754e-5 1.01651062e-5 1.01028960e-5 1.01671766e-5                        
 1.01812749e-5 1.01064452e-5 1.01331631e-5 1.22248453e-5                        
 1.01237970e-5 1.01038819e-5 1.01245858e-5 1.01279378e-5                        
 1.01024030e-5 1.01271491e-5 1.01169943e-5 1.01695427e-5                        
 1.01766412e-5 1.01876833e-5 2.09022307e-5 2.45511396e-5                        
 2.50998907e-5 3.51726182e-5 5.13859750e-4 5.02827447e-4                        
 5.02880489e-4 5.02730928e-4 4.70527934e-4 5.38020967e-4                        
 5.41082872e-4 5.46546820e-4 5.42929952e-4 5.72637242e-4                        
 5.81841098e-4 5.81842084e-4 5.80000129e-4 5.90449174e-4                        
 5.74300946e-4 5.62512952e-4 5.71127536e-4 5.66965171e-4                        
 5.83558631e-4 5.91543620e-4 5.91142951e-4 5.92299607e-4                        
 6.05848317e-4 6.08772689e-4 6.06868821e-4 6.06438870e-4                        
 6.17965995e-4 6.14499478e-4 6.18127485e-4 6.23347424e-4                        
 6.46164762e-4 6.54069203e-4 6.53973571e-4 6.54001965e-4                        
 6.67564773e-4 6.67128907e-4 6.68938721e-4 6.62449143e-4                        
 6.48720507e-4 6.06747358e-4 5.83752755e-4 5.74540717e-4                        
 5.65842036e-4 5.76461050e-4 5.82123952e-4 5.84744667e-4                        
 5.82724364e-4 5.66362886e-4 5.21984934e-4 5.17249269e-4                        
 5.16712250e-4 5.14813015e-4 5.24700197e-4 5.14899873e-4                        
 5.12401310e-4 5.13677162e-4 5.12269101e-4 5.21309199e-4                        
 5.12351917e-4 5.19608820e-4 5.22120396e-4 5.19625087e-4                        
 5.04152199e-4 5.20352582e-4 5.17558742e-4 5.19636129e-4                        
 5.13266436e-4 5.22056017e-4 5.19599059e-4 5.17275592e-4                        
 5.19937124e-4 2.04422105e-5 1.01349377e-5 1.01244872e-5                        
 1.01274449e-5 1.01304026e-5 1.01174873e-5                                      
           0.0           0.0           0.0           0.0                        
           0.0           0.0           0.0           0.0                        
           0.0           0.0           0.0           0.0                        
           0.0           0.0           0.0           0.0                        
           0.0           0.0           0.0           0.0                        
           0.0           0.0           0.0           0.0                        
           0.0           0.0           0.0           0.0                        
           0.0           0.0           0.0           0.0                        
           0.0           0.0           0.0           0.0                        
           0.0           0.0           0.0           0.0                        
           0.0           0.0           0.0           0.0                        
           0.0           0.0           0.0           0.0                        
           0.0           0.0           0.0           0.0                        
           0.0           0.0           0.0           0.0                        
           0.0           0.0           0.0           0.0                        
           0.0           0.0           0.0           0.0                        
           0.0           0.0           0.0           0.0                        
           0.0           0.0           0.0           0.0                        
           0.0           0.0           0.0           0.0                        
           0.0           0.0           0.0           0.0                        
           0.0           0.0           0.0           0.0                        
           0.0           0.0           0.0           0.0                        
           0.0           0.0           0.0           0.0                        
           0.0           0.0           0.0           0.0                        
           0.0           0.0           0.0           0.0                        
           0.0           0.0           0.0           0.0                        
           0.0           0.0           0.0           0.0                        
           0.0           0.0           0.0           0.0                        
           0.0           0.0           0.0           0.0                        
           0.0           0.0           0.0           0.0                        
           0.0           0.0           0.0           0.0                        
           0.0           0.0           0.0           0.0                        
           0.0           0.0           0.0           0.0                        
           0.0           0.0           0.0           0.0                        
           0.0           0.0           0.0           0.0                        
           0.0           0.0           0.0           0.0                        
           0.0           0.0           0.0           0.0                        
           0.0           0.0           0.0           0.0                        
           0.0           0.0           0.0           0.0                        
           0.0           0.0           0.0           0.0                        
           0.0           0.0           0.0           0.0                        
           0.0           0.0           0.0                                      

ENDCY----1----*----2----*----3----*----4----*----5----*----6----*----7----*----8
