injection model                                                                 
ROCKS----1----*----2----*----3----*----4----*----5----*----6----*----7----*----8
CLAY     1    2500.0      0.12   3.0e-18   3.0e-18   3.0e-18       2.0     920.0
              1.4e-5       2.0                                                            
EDZ      1    2500.0      0.14   1.0e-13   1.0e-13   1.0e-13       2.0     920.0
              1.4e-5       2.0                                                            
FAULT    1    2500.0      0.14   1.0e-17   1.0e-17   5.0e-18       2.0     920.0
              1.4e-5       2.0                                                            
BNDTO    1    2500.0      0.12   3.0e-18   3.0e-18   3.0e-18       2.0     920.0
              1.4e-5       2.0                                                            
BNDBO    1    2500.0      0.12   3.0e-18   3.0e-18   3.0e-18       2.0     920.0
              1.4e-5       2.0                                                            

RPCAP----1----*----2----*----3----*----4----*----5----*----6----*----7----*----8
   11            0.5       0.0       0.0                                        
   11           1.67     1.8e7       0.0       0.0       0.0       0.0      0.01
MULTI----1----*----2----*----3----*----4----*----5----*----6----*----7----*----8
    3    3    3    6                                                            
START----1----*----2----*----3----*----4----*----5----*----6----*----7----*----8
PARAM----1-MOP: 123456789*123456789*1234----*----5----*----6----*----7----*----8
 9  9999    999912115     22    9   8                                           
   94878.0  119900.0       0.5       2.0                 9.8       8.0          
    1.0e-8                                                                      
            450000.0            0.017203                 0.0                16.5
INDOM----1----*----2----*----3----*----4----*----5----*----6----*----7----*----8
BNDTO                                                                           
            830777.5            0.017203                 0.0                16.5
BNDBO                                                                           
      1322849.326423            0.017203                 0.0                16.5

TIMES----1----*----2----*----3----*----4----*----5----*----6----*----7----*----8
   20                                                                           
   94878.0 9.61944e4 9.75108e4 9.88272e4 1.00143e5 1.01460e5 1.02776e5 1.04092e5
 1.05409e5 1.06725e5 1.08042e5 1.09358e5 1.10675e5 1.11991e5 1.13307e5 1.14624e5
 1.15940e5 1.17257e5 1.18573e5  119890.0                                        
FOFT ----1----*----2----*----3----*----4----*----5----*----6----*----7----*----8
A1166                                                                           
A1R17                                                                           
AAQ17                                                                           

GENER----1----*----2----*----3----*----4----*----5----*----6----*----7----*----8
AA212                      231     COM11                                        
           0.0        6000.0       12000.0       18000.0                        
     23553.602     23554.602     23555.602     23556.602                        
     23639.602     23640.602     23641.602     23642.602                        
       24000.0     27246.691     27247.691     27248.691                        
     27249.691     27250.691     27251.691     27252.691                        
     27260.691     27261.691     27262.691     27263.691                        
     27264.691     27265.691     27266.691     27267.691                        
     27268.691     27269.691     27270.691     27271.691                        
     27272.691     27273.691     27274.691     27275.691                        
     27276.691     27277.691     27278.691     27279.691                        
     27280.691     27281.691     27282.691     27283.691                        
     27284.691     27285.691     27286.691     27287.691                        
     27288.691     27289.691     27290.691     27291.691                        
     27292.691     27293.691     27294.691     27295.691                        
     27296.691     27297.691     29350.747     29351.747                        
     29352.747     29353.747     29356.747     29357.747                        
     29358.747     29359.747     29360.747     29361.747                        
     29450.758     29451.758     29452.758     29453.758                        
     29454.758     29455.758     29456.758     29457.758                        
     29476.758     29477.758     29478.758     29479.758                        
       30000.0     31150.784     31151.784     31152.784                        
     31153.784     31154.784     31155.784     31156.784                        
     31157.784     31158.784     31159.784     31160.784                        
     31161.784     31162.784     31163.784     31164.784                        
     31165.784     31166.784     31167.784     31171.784                        
     31172.784     31173.784     31174.784     31944.815                        
     31945.815     31946.815     31947.815     31948.815                        
     31949.815     31950.815     31951.815     31952.815                        
     31953.815     31954.815     31955.815     31956.815                        
     31961.815     31962.815     31963.815     31964.815                        
       36000.0       42000.0       48000.0       54000.0                        
       60000.0       66000.0       72000.0       78000.0                        
       84000.0       90000.0     94878.561     94879.561                        
     94880.561     94881.561     94912.561     94913.561                        
     94914.561     94915.561     94916.561     94920.561                        
     94921.561     94922.561     94923.561     94924.561                        
     94926.561     94927.561     94928.561     94929.561                        
     94930.561     94931.561     94932.561     94945.561                        
     94946.561     94947.561     94948.561     94951.561                        
     94952.561     94953.561     94954.561     94992.561                        
     94993.561     94994.561     94995.561     95020.568                        
     95021.568     95022.568     95023.568       96000.0                        
     99828.923     99829.923     99830.923     99831.923                        
      102000.0      108000.0    109965.226    109966.226                        
    109967.226    109968.226    109969.226      114000.0                        
      120000.0      126000.0      132000.0      138000.0                        
      144000.0      150000.0      156000.0      162000.0                        
      168000.0      174000.0      180000.0    185972.675                        
    185973.675    185974.675    185975.675    185981.675                        
    185982.675    185983.675    185984.675    185985.675                        
      186000.0    186002.675    186003.675    186004.675                        
    186005.675     186517.72     186518.72     186519.72                        
     186520.72     186521.72     186522.72     186530.72                        
     186531.72     186532.72     186533.72      192000.0                        
      198000.0    202115.161    202116.161    202117.161                        
    202118.161      204000.0    205023.372    205024.372                        
    205025.372    205026.372      210000.0      216000.0                        
      222000.0      228000.0      234000.0                                      
           0.0           0.0           0.0           0.0                        
           0.0           0.0 4.56133333e-7 1.72537333e-6                        
 1.78561333e-6 1.83289666e-6   1.832125e-6           0.0                        
           0.0           0.0           0.0           0.0                        
 6.61351833e-6   5.128655e-6 4.46789833e-6 3.67656666e-6                        
 4.04999666e-6 4.04988333e-6 4.04985333e-6 3.70479666e-6                        
 3.30756166e-6 3.14960666e-6 2.31371166e-6 2.66267833e-6                        
 4.26606666e-7   2.658895e-6 1.74341166e-6 2.61837666e-6                        
 7.49046666e-7 2.74462333e-6 5.71311666e-7    2.10538e-6                        
    2.87134e-6           0.0 8.04651666e-7 3.27695666e-6                        
           0.0 1.09398833e-6 2.31762333e-6 8.75541666e-7                        
           0.0 2.37632333e-6 5.53133333e-7           0.0                        
           0.0    3.10926e-6 1.04017166e-6 1.84778333e-6                        
 8.41791666e-7 8.90668333e-7 1.10383333e-6 1.72767166e-6                        
 4.15273333e-7           0.0           0.0           0.0                        
           0.0 1.74325666e-6 1.74333833e-6 1.67710333e-6                        
 1.69315666e-6           0.0           0.0 1.69508166e-6                        
 1.64329499e-6 1.64444166e-6    1.64566e-6    5.41256e-6                        
 1.25198966e-5 8.17290333e-6    3.56384e-6 2.39302666e-6                        
 4.82446666e-7 4.82478333e-7 5.30968333e-7           0.0                        
           0.0 4.61798333e-7      4.809e-7 7.59790000e-7                        
 1.63692166e-6 2.27813666e-6    4.23273e-6   5.397975e-6                        
 8.47245833e-6 7.29745833e-6 3.54515666e-6 2.45178999e-6                        
   2.160235e-6   2.049455e-6   1.893725e-6 1.68982666e-6                        
 1.55358333e-6 1.34091166e-6 9.72856666e-7    6.14755e-7                        
 6.10283333e-7 4.55058333e-7           0.0           0.0                        
    4.54175e-7 1.07283833e-6 2.22127166e-6    2.58918e-6                        
 2.49838666e-6    7.56125e-7    7.56045e-7 2.28713333e-6                        
    3.38163e-6 2.88713999e-6 1.34675333e-6 8.97888333e-7                        
 4.54696666e-7 4.54546666e-7 4.54603333e-7           0.0                        
           0.0           0.0           0.0           0.0                        
           0.0           0.0           0.0           0.0                        
           0.0           0.0           0.0           0.0                        
           0.0    1.83019e-6 1.84336666e-6 1.83216666e-6                        
    1.84959e-6 3.67922833e-6 2.04078666e-6 1.84670666e-6                        
 1.68682833e-6 1.63974333e-6   3.103675e-6   2.517715e-6                        
 3.51850833e-6 3.52523166e-6 3.74102833e-6 4.83770333e-6                        
    5.88107e-6 7.06218333e-6 8.07124166e-6 9.90452666e-6                        
 9.90721666e-6    9.91058e-6   9.281725e-6 9.35515166e-6                        
    9.33542e-6 9.39176999e-6 8.97142333e-6 9.19268833e-6                        
    9.42899e-6    9.42879e-6 9.11680500e-6    9.28328e-6                        
 9.28211166e-6 9.20481833e-6 8.97123666e-6    8.82455e-6                        
 8.82556833e-6 8.82390166e-6 8.82500166e-6 8.25179833e-6                        
 8.82811833e-6   8.825445e-6 8.82468333e-6 8.82513333e-6                        
 8.82613166e-6 4.98556666e-7           0.0           0.0                        
           0.0           0.0           0.0           0.0                        
           0.0           0.0           0.0           0.0                        
           0.0           0.0           0.0 4.15038333e-7                        
    4.24315e-7 5.94595000e-7 8.68682666e-6   8.500325e-6                        
 8.50122166e-6 8.49869333e-6 7.95429999e-6 9.09527333e-6                        
 9.83616333e-6 9.83607166e-6 9.80493333e-6   9.981575e-6                        
 9.70858833e-6 1.12778499e-5 1.13084449e-5 1.11987383e-5                        
  1.0966655e-5 1.02570966e-5 9.86837166e-6 9.84083666e-6                        
    9.88514e-6 9.85098666e-6 9.57439499e-6   8.739575e-6                        
 8.69953666e-6 8.78401499e-6 8.82647333e-6 8.78429000e-6                        
    8.52272e-6 8.82615499e-6    8.78385e-6 8.74457166e-6                        
   8.789565e-6           0.0           0.0           0.0                        
           0.0           0.0           0.0                                      
           0.0           0.0           0.0           0.0                        
           0.0           0.0           0.0           0.0                        
           0.0           0.0           0.0           0.0                        
           0.0           0.0           0.0           0.0                        
           0.0           0.0           0.0           0.0                        
           0.0           0.0           0.0           0.0                        
           0.0           0.0           0.0           0.0                        
           0.0           0.0           0.0           0.0                        
           0.0           0.0           0.0           0.0                        
           0.0           0.0           0.0           0.0                        
           0.0           0.0           0.0           0.0                        
           0.0           0.0           0.0           0.0                        
           0.0           0.0           0.0           0.0                        
           0.0           0.0           0.0           0.0                        
           0.0           0.0           0.0           0.0                        
           0.0           0.0           0.0           0.0                        
           0.0           0.0           0.0           0.0                        
           0.0           0.0           0.0           0.0                        
           0.0           0.0           0.0           0.0                        
           0.0           0.0           0.0           0.0                        
           0.0           0.0           0.0           0.0                        
           0.0           0.0           0.0           0.0                        
           0.0           0.0           0.0           0.0                        
           0.0           0.0           0.0           0.0                        
           0.0           0.0           0.0           0.0                        
           0.0           0.0           0.0           0.0                        
           0.0           0.0           0.0           0.0                        
           0.0           0.0           0.0           0.0                        
           0.0           0.0           0.0           0.0                        
           0.0           0.0           0.0           0.0                        
           0.0           0.0           0.0           0.0                        
           0.0           0.0           0.0           0.0                        
           0.0           0.0           0.0           0.0                        
           0.0           0.0           0.0           0.0                        
           0.0           0.0           0.0           0.0                        
           0.0           0.0           0.0           0.0                        
           0.0           0.0           0.0           0.0                        
           0.0           0.0           0.0           0.0                        
           0.0           0.0           0.0           0.0                        
           0.0           0.0           0.0           0.0                        
           0.0           0.0           0.0           0.0                        
           0.0           0.0           0.0           0.0                        
           0.0           0.0           0.0           0.0                        
           0.0           0.0           0.0           0.0                        
           0.0           0.0           0.0           0.0                        
           0.0           0.0           0.0           0.0                        
           0.0           0.0           0.0           0.0                        
           0.0           0.0           0.0           0.0                        
           0.0           0.0           0.0           0.0                        
           0.0           0.0           0.0           0.0                        
           0.0           0.0           0.0           0.0                        
           0.0           0.0           0.0           0.0                        
           0.0           0.0           0.0           0.0                        
           0.0           0.0           0.0           0.0                        
           0.0           0.0           0.0           0.0                        
           0.0           0.0           0.0           0.0                        
           0.0           0.0           0.0           0.0                        
           0.0           0.0           0.0                                      

OUTPU----1----*----2----*----3----*----4----*----5----*----6----*----7----*----8
2                                                                               
ABSOLUTE                0                                                       
COORDINATE                                                                      
ENDCY----1----*----2----*----3----*----4----*----5----*----6----*----7----*----8
