injection model                                                                 
ROCKS----1----*----2----*----3----*----4----*----5----*----6----*----7----*----8
INJEC    1    2500.0      0.99   5.0e-19   5.0e-19   1.0e-19       2.0    9.2e22
   1.0e-99    1.4e-5       2.0                                                            
CLAY     1    2500.0      0.14   7.3e-20   7.3e-20   7.3e-20       2.0     920.0
   1.0e-99    1.4e-5       2.0       0.8                                                  
FAULT    1    2500.0      0.14   4.0e-19   4.0e-19   4.0e-19       2.0     920.0
   1.0e-99    1.4e-5       2.0       0.8                                                  
BNDTO    1    2500.0      0.14   7.3e-20   7.3e-20   7.3e-20       2.0     920.0
   1.0e-99    1.4e-5       2.0                                                            
BNDBO    1    2500.0      0.14   7.3e-20   7.3e-20   7.3e-20       2.0     920.0
   1.0e-99    1.4e-5       2.0                                                            

RPCAP----1----*----2----*----3----*----4----*----5----*----6----*----7----*----8
   11            0.5       0.0       0.0                                        
   11           1.67     1.8e7       0.0       0.0       0.0       0.0      0.01
MULTI----1----*----2----*----3----*----4----*----5----*----6----*----7----*----8
    3    3    3    6                                                            
START----1----*----2----*----3----*----4----*----5----*----6----*----7----*----8
PARAM----1-MOP: 123456789*123456789*1234----*----5----*----6----*----7----*----8
    9999    999912115     02    9   8                                           
       0.0 2.90526e5    3600.0  172800.0                 9.8       4.0          
    1.0e-7                                                                      
            450000.0            0.017203                 0.0                16.5
INDOM----1----*----2----*----3----*----4----*----5----*----6----*----7----*----8
BNDTO                                                                           
   675416.0976180864            0.017203                 0.0                16.5
BNDBO                                                                           
   675416.0976180864            0.017203                 0.0                16.5

TIMES----1----*----2----*----3----*----4----*----5----*----6----*----7----*----8
  100                                                                           
       0.0 2.93460e3 5.86921e3 8.80382e3 1.17384e4 1.46730e4 1.76076e4 2.05422e4
 2.34768e4 2.64114e4 2.93460e4 3.22806e4 3.52152e4 3.81498e4 4.10845e4 4.40191e4
 4.69537e4 4.98883e4 5.28229e4 5.57575e4 5.86921e4 6.16267e4 6.45613e4 6.74959e4
 7.04305e4 7.33651e4 7.62997e4 7.92343e4 8.21690e4 8.51036e4 8.80382e4 9.09728e4
 9.39074e4 9.68420e4 9.97766e4 1.02711e5 1.05645e5 1.08580e5 1.11515e5 1.14449e5
 1.17384e5 1.20318e5 1.23253e5 1.26188e5 1.29122e5 1.32057e5 1.34991e5 1.37926e5
 1.40861e5 1.43795e5 1.46730e5 1.49664e5 1.52599e5 1.55534e5 1.58468e5 1.61403e5
 1.64338e5 1.67272e5 1.70207e5 1.73141e5 1.76076e5 1.79011e5 1.81945e5 1.84880e5
 1.87814e5 1.90749e5 1.93684e5 1.96618e5 1.99553e5 2.02487e5 2.05422e5 2.08357e5
 2.11291e5 2.14226e5 2.17160e5 2.20095e5 2.23030e5 2.25964e5 2.28899e5 2.31833e5
 2.34768e5 2.37703e5 2.40637e5 2.43572e5 2.46507e5 2.49441e5 2.52376e5 2.55310e5
 2.58245e5 2.61180e5 2.64114e5 2.67049e5 2.69983e5 2.72918e5 2.75853e5 2.78787e5
 2.81722e5 2.84656e5 2.87591e5 2.90526e5                                        
ENDCY----1----*----2----*----3----*----4----*----5----*----6----*----7----*----8
