injection model                                                                 
ROCKS----1----*----2----*----3----*----4----*----5----*----6----*----7----*----8
INJEC    1    2500.0      0.99   5.0e-15   5.0e-15   5.0e-15       2.0    9.2e22
       0.0    1.4e-5       2.0                                                            
CLAY     1    2500.0      0.14   7.3e-20   7.3e-20   7.3e-20       2.0     920.0
   1.0e-99    1.4e-5       2.0       0.8                                                  
FAULT    1    2500.0      0.14   4.0e-19   4.0e-19   4.0e-19       2.0     920.0
   1.0e-99    1.4e-5       2.0       0.8                                                  
BNDTO    1    2500.0      0.14   7.3e-20   7.3e-20   7.3e-20       2.0     920.0
   1.0e-99    1.4e-5       2.0                                                            
BNDBO    1    2500.0      0.14   7.3e-20   7.3e-20   7.3e-20       2.0     920.0
   1.0e-99    1.4e-5       2.0                                                            

RPCAP----1----*----2----*----3----*----4----*----5----*----6----*----7----*----8
   11            0.5       0.0       0.0                                        
   11           1.67     1.8e7       0.0       0.0       0.0       0.0      0.01
MULTI----1----*----2----*----3----*----4----*----5----*----6----*----7----*----8
    3    3    3    6                                                            
START----1----*----2----*----3----*----4----*----5----*----6----*----7----*----8
PARAM----1-MOP: 123456789*123456789*1234----*----5----*----6----*----7----*----8
    9999    999912115     02    9   8                                           
       0.0  168000.0       1.0      60.0                 9.8       4.0          
    1.0e-9                                                                      
            450000.0            0.017203                 0.0                16.5
INDOM----1----*----2----*----3----*----4----*----5----*----6----*----7----*----8
BNDTO                                                                           
            658430.1            0.017203                 0.0                16.5
BNDBO                                                                           
            658430.1            0.017203                 0.0                16.5

GENER----1----*----2----*----3----*----4----*----5----*----6----*----7----*----8
A8293                              COM1       0.01                              

ENDCY----1----*----2----*----3----*----4----*----5----*----6----*----7----*----8
