natural state                                                                   
ROCKS----1----*----2----*----3----*----4----*----5----*----6----*----7----*----8
INJEC    2    2500.0      0.99   5.0e-16   5.0e-16   1.0e-17       2.0    9.2e22
   1.0e-99    1.4e-5       2.0                                                            
    3            1.0       0.0                                                  
    8                                                                           
CLAY     1    2500.0      0.14   1.0e-15   1.0e-15   1.0e-15       2.0     920.0
   1.0e-99    1.4e-5       2.0       0.8                                                  
FAULT    1    2500.0      0.14   1.0e-15   1.0e-15   1.0e-15       2.0     920.0
   1.0e-99    1.4e-5       2.0                                                            
BNDTO    1    2500.0      0.14   1.0e-15   1.0e-15   1.0e-15       2.0     920.0
   1.0e-99    1.4e-5       2.0                                                            
BNDBO    1    2500.0      0.14   1.0e-15   1.0e-15   1.0e-15       2.0     920.0
   1.0e-99    1.4e-5       2.0                                                            

RPCAP----1----*----2----*----3----*----4----*----5----*----6----*----7----*----8
   11            0.5       0.0       0.0                                        
   11           1.67     1.5e7       0.0       0.0       0.0       0.0      0.01
MULTI----1----*----2----*----3----*----4----*----5----*----6----*----7----*----8
    3    3    3    6                                                            
START----1----*----2----*----3----*----4----*----5----*----6----*----7----*----8
PARAM----1-MOP: 123456789*123456789*1234----*----5----*----6----*----7----*----8
    9999    999912115     02    9   8                                           
       0.0  1.5768e9    3600.0  172800.0                 9.8       4.0          
    1.0e-7                                                                      
            100000.0                 0.0                 0.0                16.5
INDOM----1----*----2----*----3----*----4----*----5----*----6----*----7----*----8
BNDTO                                                                           
            493430.1            0.017203                 0.0                16.5
BNDBO                                                                           
            694535.1            0.017203                 0.0                16.5

TIMES----1----*----2----*----3----*----4----*----5----*----6----*----7----*----8
   20                                                                           
       0.0 8.29894e7 1.65978e8 2.48968e8 3.31957e8 4.14947e8 4.97936e8 5.80926e8
 6.63915e8 7.46905e8 8.29894e8 9.12884e8 9.95873e8 1.07886e9 1.16185e9 1.24484e9
 1.32783e9 1.41082e9 1.49381e9  1.5768e9                                        
ENDCY----1----*----2----*----3----*----4----*----5----*----6----*----7----*----8
